%chk=2-52_neutral_pka.chk
%mem=2GB
%nproc=2
#P M062X/6-31+G(d,p) Opt Freq SCRF=(SMD, Solvent=Water)

2-52_neutral_pka

0 1
 O              
 C                  1            B1
 O                  2            B2    1            A1
 C                  2            B3    1            A2    3            D1    0
 C                  4            B4    2            A3    1            D2    0
 C                  5            B5    4            A4    2            D3    0
 C                  6            B6    5            A5    4            D4    0
 C                  6            B7    5            A6    4            D5    0
 C                  8            B8    6            A7    5            D6    0
 C                  9            B9    8            A8    6            D7    0
 C                 10           B10    9            A9    8            D8    0
 C                 11           B11   10           A10    9            D9    0
 C                 12           B12   11           A11   10           D10    0
 C                 13           B13   12           A12   11           D11    0
 C                 14           B14   13           A13   12           D12    0
 C                 15           B15   14           A14   13           D13    0
 C                 16           B16   15           A15   14           D14    0
 C                 12           B17   11           A16   10           D15    0
 O                 16           B18   15           A17   14           D16    0
 C                 13           B19   12           A18   11           D17    0
 C                 15           B20   14           A19   13           D18    0
 H                  3           B21    2           A20    1           D19    0
 H                  4           B22    2           A21    1           D20    0
 H                  7           B23    6           A22    5           D21    0
 H                  7           B24    6           A23    5           D22    0
 H                  7           B25    6           A24    5           D23    0
 H                  8           B26    6           A25    5           D24    0
 H                  9           B27    8           A26    6           D25    0
 H                 10           B28    9           A27    8           D26    0
 H                 12           B29   11           A28   10           D27    0
 H                 14           B30   13           A29   12           D28    0
 H                 14           B31   13           A30   12           D29    0
 H                 17           B32   16           A31   15           D30    0
 H                 17           B33   16           A32   15           D31    0
 H                 18           B34   12           A33   11           D32    0
 H                 18           B35   12           A34   11           D33    0
 H                 19           B36   16           A35   15           D34    0
 H                 20           B37   13           A36   12           D35    0
 H                 20           B38   13           A37   12           D36    0
 H                 21           B39   15           A38   14           D37    0
 H                 21           B40   15           A39   14           D38    0

   B1             1.25840000
   B2             1.43000000
   B3             1.54000000
   B4             1.54753269
   B5             1.52904776
   B6             1.53999999
   B7             1.36615625
   B8             1.56120076
   B9             1.36583212
   B10            1.52870781
   B11            1.54139373
   B12            1.51786099
   B13            1.55751420
   B14            1.55349614
   B15            1.53337388
   B16            1.54882428
   B17            1.51910480
   B18            1.43000001
   B19            1.51921986
   B20            1.35519998
   B21            0.96000000
   B22            1.06999999
   B23            1.07000000
   B24            1.07000000
   B25            1.07000000
   B26            1.07000001
   B27            1.07000000
   B28            1.06999999
   B29            1.07000000
   B30            1.07000000
   B31            1.07000001
   B32            1.07000001
   B33            1.07000000
   B34            1.07000000
   B35            1.07000000
   B36            0.96000000
   B37            1.06999999
   B38            1.06999999
   B39            1.06999999
   B40            1.07000000
   A1           120.00000032
   A2           120.00000060
   A3           114.89331401
   A4           129.63006835
   A5           121.10917737
   A6           117.78164417
   A7           120.62323046
   A8           120.59061428
   A9           117.71974661
   A10          129.88896402
   A11          100.81372388
   A12          113.69554682
   A13          102.39667757
   A14          106.31941955
   A15          106.51781490
   A16          115.69979231
   A17          115.69305096
   A18          111.98600890
   A19          126.85931543
   A20          109.47122099
   A21          107.97280206
   A22          109.47122086
   A23          109.47122038
   A24          109.47122027
   A25          119.68838596
   A26          119.70469208
   A27          121.14012181
   A28          109.72787352
   A29          109.35102682
   A30          113.52612516
   A31          109.75598956
   A32          110.40047526
   A33          108.98823196
   A34          110.51749970
   A35          109.47122147
   A36          114.02974161
   A37          110.46100558
   A38          119.99999924
   A39          120.00000006
   D1           180.00000000
   D2           -27.00595597
   D3           -30.75973764
   D4             0.10542418
   D5          -179.88170946
   D6            -0.02170345
   D7            -0.06826531
   D8             0.04578198
   D9          -179.66566858
   D10          151.75219967
   D11          -76.26174149
   D12          -76.53712339
   D13          -14.14580405
   D14           98.03410722
   D15           32.26737925
   D16         -140.63391733
   D17          172.43273024
   D18          165.41221764
   D19          -30.00000279
   D20         -149.61922756
   D21         -149.99335523
   D22          -29.99335524
   D23           90.00664461
   D24          179.97395960
   D25          179.94260385
   D26         -179.93954323
   D27          -90.56556015
   D28          168.01104792
   D29           46.76161597
   D30         -165.95784316
   D31           73.65002518
   D32           51.76724731
   D33          -68.39843780
   D34          178.69132190
   D35          -55.36870763
   D36         -177.20336078
   D37         -179.73507410
   D38            0.26493440
