%chk=2-5_neutral_pka.chk
%mem=2GB
%nproc=2
#P M062X/6-31+G(d,p) Opt Freq SCRF=(SMD, Solvent=Water)

2-5_neutral_pka

0 1
 O              
 C                  1            B1
 C                  2            B2    1            A1
 C                  3            B3    2            A2    1            D1    0
 C                  4            B4    3            A3    2            D2    0
 C                  5            B5    4            A4    3            D3    0
 N                  6            B6    5            A5    4            D4    0
 C                  6            B7    5            A6    4            D5    0
 C                  8            B8    6            A7    5            D6    0
 C                  9            B9    8            A8    6            D7    0
 C                  9           B10    8            A9    6            D8    0
 C                 11           B11    9           A10    8            D9    0
 C                 12           B12   11           A11    9           D10    0
 C                 13           B13   12           A12   11           D11    0
 C                 14           B14   13           A13   12           D12    0
 C                 15           B15   14           A14   13           D13    0
 C                 16           B16   15           A15   14           D14    0
 C                  5           B17    4           A16    3           D15    0
 C                  3           B18    2           A17    1           D16    0
 H                  1           B19    2           A18    3           D17    0
 H                  4           B20    3           A19    2           D18    0
 H                  4           B21    3           A20    2           D19    0
 H                  6           B22    5           A21    4           D20    0
 H                  7           B23    6           A22    5           D21    0
 H                  7           B24    6           A23    5           D22    0
 H                 10           B25    9           A24    8           D23    0
 H                 10           B26    9           A25    8           D24    0
 H                 10           B27    9           A26    8           D25    0
 H                 11           B28    9           A27    8           D26    0
 H                 12           B29   11           A28    9           D27    0
 H                 13           B30   12           A29   11           D28    0
 H                 15           B31   14           A30   13           D29    0
 H                 16           B32   15           A31   14           D30    0
 H                 16           B33   15           A32   14           D31    0
 H                 17           B34   16           A33   15           D32    0
 H                 17           B35   16           A34   15           D33    0
 H                 18           B36    5           A35    4           D34    0
 H                 18           B37    5           A36    4           D35    0
 H                 19           B38    3           A37    2           D36    0
 H                 19           B39    3           A38    2           D37    0

   B1             1.42999999
   B2             1.53337385
   B3             1.55349614
   B4             1.55751419
   B5             1.53215685
   B6             1.47000000
   B7             1.54753267
   B8             1.52904775
   B9             1.53999999
   B10            1.36615625
   B11            1.56120075
   B12            1.36583213
   B13            1.52870781
   B14            1.54139372
   B15            1.51910482
   B16            1.54409744
   B17            1.51921985
   B18            1.35520001
   B19            0.95999999
   B20            1.06999999
   B21            1.06999999
   B22            1.07000000
   B23            0.99999999
   B24            1.00000000
   B25            1.07000002
   B26            1.06999993
   B27            1.07000004
   B28            1.07000002
   B29            1.06999998
   B30            1.07000001
   B31            1.07000000
   B32            1.07000001
   B33            1.07000001
   B34            1.07000000
   B35            1.07000000
   B36            1.07000000
   B37            1.07000000
   B38            1.07000000
   B39            1.07000000
   A1           115.69305008
   A2           106.31941771
   A3           102.39668056
   A4           112.70844935
   A5           112.82057713
   A6            99.89758820
   A7           129.63006631
   A8           121.10918010
   A9           117.78164304
   A10          120.62323107
   A11          120.59061594
   A12          117.71974439
   A13          129.88896394
   A14          115.69979252
   A15          108.45704462
   A16           99.09421777
   A17          126.81963056
   A18          109.47122007
   A19          113.95012448
   A20          108.95862087
   A21          111.56086668
   A22          109.47122048
   A23          109.47122117
   A24          109.47121747
   A25          109.47122423
   A26          109.47121999
   A27          119.68838714
   A28          119.70468913
   A29          121.14012303
   A30          109.72787251
   A31          108.98823297
   A32          110.51749984
   A33          111.65238301
   A34          108.50103584
   A35          110.46100440
   A36          114.02974279
   A37          119.99999973
   A38          120.00000063
   D1          -140.63392209
   D2           -14.14580156
   D3           170.79654477
   D4           -45.35234214
   D5            77.12708336
   D6          -151.75712822
   D7             0.10542421
   D8          -179.88170892
   D9            -0.02170226
   D10           -0.06826768
   D11            0.04578391
   D12         -179.66566972
   D13           32.26738048
   D14          169.88699859
   D15           42.42979740
   D16           39.80782755
   D17          178.69133177
   D18         -137.15911955
   D19          101.59059049
   D20         -167.10307346
   D21          -63.37482306
   D22           56.62517765
   D23         -149.99334643
   D24          -29.99334967
   D25           90.00664834
   D26          179.97396069
   D27          179.94260131
   D28         -179.93954169
   D29          -90.56555890
   D30           51.76724517
   D31          -68.39844026
   D32           64.40588384
   D33         -175.23089941
   D34           62.56218766
   D35         -175.60316073
   D36          179.73506977
   D37           -0.26493064
