2-5_charged_pka
                    3D
 Schrodinger Suite 2022-2.
 41 44  0  0  1  0            999 V2000
    0.0281    2.5650   -0.6807 C   0  0  0  0  0  0
   -0.5395    1.4787   -0.1287 C   0  0  0  0  0  0
   -1.8892    1.4180    0.5922 C   0  0  0  0  0  0
   -2.0192   -0.0354    1.1620 C   0  0  2  0  0  0
   -0.5369   -0.3660    1.3389 C   0  0  0  0  0  0
    0.0186    0.0589   -0.0322 C   0  0  2  0  0  0
    1.4303   -0.0110   -0.1122 O   0  0  0  0  0  0
   -0.5220   -0.8439   -1.1917 C   0  0  0  0  0  0
   -2.0731   -0.8885   -1.2662 C   0  0  0  0  0  0
   -2.6503   -1.0266    0.1602 C   0  0  2  0  0  0
   -4.1358   -0.8745    0.3904 C   0  0  0  0  0  0
   -5.2038   -1.1997   -0.4444 C   0  0  0  0  0  0
   -6.5066   -1.0985    0.0347 C   0  0  0  0  0  0
   -6.7364   -0.7138    1.3543 C   0  0  0  0  0  0
   -5.6713   -0.4028    2.2089 C   0  0  0  0  0  0
   -6.0002   -0.0726    3.6572 C   0  0  0  0  0  0
   -4.3532   -0.4417    1.7079 C   0  0  0  0  0  0
   -2.9837   -0.2066    2.3672 C   0  0  2  0  0  0
   -3.0115    0.9125    3.4238 N   0  3  0  0  0  0
   -0.4705    3.5232   -0.6659 H   0  0  0  0  0  0
    0.9974    2.5114   -1.1548 H   0  0  0  0  0  0
   -2.7246    1.6759   -0.0601 H   0  0  0  0  0  0
   -1.8786    2.1706    1.3800 H   0  0  0  0  0  0
   -0.3622   -1.4233    1.5459 H   0  0  0  0  0  0
   -0.0882    0.2028    2.1571 H   0  0  0  0  0  0
    1.6966   -0.9280   -0.0136 H   0  0  0  0  0  0
   -0.1505   -1.8619   -1.0579 H   0  0  0  0  0  0
   -0.1291   -0.5077   -2.1530 H   0  0  0  0  0  0
   -2.3665   -1.7398   -1.8819 H   0  0  0  0  0  0
   -2.4461    0.0140   -1.7523 H   0  0  0  0  0  0
   -2.4133   -2.0486    0.4676 H   0  0  0  0  0  0
   -5.0349   -1.5469   -1.4533 H   0  0  0  0  0  0
   -7.3386   -1.3491   -0.6071 H   0  0  0  0  0  0
   -7.7541   -0.6770    1.7165 H   0  0  0  0  0  0
   -5.3064   -0.5791    4.3287 H   0  0  0  0  0  0
   -5.9316    1.0010    3.8342 H   0  0  0  0  0  0
   -6.9997   -0.4101    3.9358 H   0  0  0  0  0  0
   -2.6982   -1.0720    2.9682 H   0  0  0  0  0  0
   -3.6696    0.6854    4.1555 H   0  0  0  0  0  0
   -2.0958    1.0226    3.8356 H   0  0  0  0  0  0
   -3.2796    1.7872    2.9957 H   0  0  0  0  0  0
  1  2  2  0  0  0
  1 20  1  0  0  0
  1 21  1  0  0  0
  2  6  1  0  0  0
  2  3  1  0  0  0
  3  4  1  0  0  0
  3 22  1  0  0  0
  3 23  1  0  0  0
  4 10  1  0  0  0
  4 18  1  0  0  0
  4  5  1  0  0  0
  5  6  1  0  0  0
  5 24  1  0  0  0
  5 25  1  0  0  0
  6  7  1  0  0  0
  6  8  1  0  0  0
  7 26  1  0  0  0
  8  9  1  0  0  0
  8 27  1  0  0  0
  8 28  1  0  0  0
  9 10  1  0  0  0
  9 29  1  0  0  0
  9 30  1  0  0  0
 10 11  1  0  0  0
 10 31  1  0  0  0
 11 17  1  0  0  0
 11 12  2  0  0  0
 12 13  1  0  0  0
 12 32  1  0  0  0
 13 14  2  0  0  0
 13 33  1  0  0  0
 14 15  1  0  0  0
 14 34  1  0  0  0
 15 16  1  0  0  0
 15 17  2  0  0  0
 16 35  1  0  0  0
 16 36  1  0  0  0
 16 37  1  0  0  0
 17 18  1  0  0  0
 18 19  1  0  0  0
 18 38  1  0  0  0
 19 39  1  0  0  0
 19 40  1  0  0  0
 19 41  1  0  0  0
M  CHG  1  19   1
M  END
> <s_m_entry_id>
27843

> <s_m_entry_name>
data_pKa.15

> <s_m_Source_Path>
C:\Users\olshana1\Git\GramNeg-Accumulation\Computational-chemistry-course-project\pKa

> <s_m_Source_File>
data_pKa.csv

> <i_m_Source_File_Index>
15

> <s_m_job_name>
ligprep_comp_chem

> <s_m_source_file>
ligprep_comp_chem.maegz

> <i_m_source_file_index>
15

> <i_lp_mmshare_version>
58128

> <i_f3d_flags>
0

> <s_lp_Force_Field>
S-OPLS

> <r_lp_Energy>
40.075071

> <b_lp_Chiralities_Consistent>
1

> <s_lp_Variant>
2-5_charged_pka-1

> <s_m_subgroup_title>
ligprep_comp_chem-out1

> <s_m_subgroupid>
ligprep_comp_chem-out1

> <b_m_subgroup_collapsed>
0

$$$$
