2-5_neutral_pka
                    3D
 Schrodinger Suite 2022-2.
 40 43  0  0  1  0            999 V2000
   -0.0255   -0.0835   -0.1219 O   0  0  0  0  0  0
    1.3867   -0.0907   -0.0213 C   0  0  1  0  0  0
    2.0066   -1.4890   -0.0641 C   0  0  0  0  0  0
    3.3395   -1.3498    0.6767 C   0  0  0  0  0  0
    3.3979    0.1247    1.1883 C   0  0  1  0  0  0
    4.3392    0.3730    2.3852 C   0  0  1  0  0  0
    4.2914   -0.5971    3.4681 N   0  0  0  0  0  0
    5.7103    0.5329    1.7186 C   0  0  0  0  0  0
    7.0231    0.2996    2.1693 C   0  0  0  0  0  0
    7.3353   -0.1897    3.5745 C   0  0  0  0  0  0
    8.0946    0.5722    1.3094 C   0  0  0  0  0  0
    7.8731    1.0695    0.0254 C   0  0  0  0  0  0
    6.5735    1.2891   -0.4249 C   0  0  0  0  0  0
    5.4983    0.9961    0.4126 C   0  0  0  0  0  0
    4.0094    1.1206    0.1710 C   0  0  1  0  0  0
    3.4517    0.9155   -1.2555 C   0  0  0  0  0  0
    1.9032    0.8025   -1.1994 C   0  0  0  0  0  0
    1.9039    0.4036    1.3405 C   0  0  0  0  0  0
    1.4968   -2.6150   -0.5921 C   0  0  0  0  0  0
   -0.3297    0.8245   -0.0568 H   0  0  0  0  0  0
    4.1958   -1.5979    0.0481 H   0  0  0  0  0  0
    3.3528   -2.0607    1.5033 H   0  0  0  0  0  0
    4.0787    1.3302    2.8402 H   0  0  0  0  0  0
    3.3721   -0.5873    3.8863 H   0  0  0  0  0  0
    4.4178   -1.5260    3.0923 H   0  0  0  0  0  0
    8.3871   -0.0590    3.8332 H   0  0  0  0  0  0
    6.7580    0.3749    4.3074 H   0  0  0  0  0  0
    7.0741   -1.2430    3.6791 H   0  0  0  0  0  0
    9.1110    0.4110    1.6389 H   0  0  0  0  0  0
    8.7110    1.2836   -0.6219 H   0  0  0  0  0  0
    6.4126    1.6670   -1.4238 H   0  0  0  0  0  0
    3.7416    2.1432    0.4495 H   0  0  0  0  0  0
    3.8697    0.0160   -1.7097 H   0  0  0  0  0  0
    3.7166    1.7596   -1.8936 H   0  0  0  0  0  0
    1.4857    1.8062   -1.0984 H   0  0  0  0  0  0
    1.5386    0.4228   -2.1557 H   0  0  0  0  0  0
    1.4689   -0.1536    2.1739 H   0  0  0  0  0  0
    1.6874    1.4603    1.5073 H   0  0  0  0  0  0
    2.0368   -3.5489   -0.5380 H   0  0  0  0  0  0
    0.5357   -2.6189   -1.0848 H   0  0  0  0  0  0
  1  2  1  0  0  0
  1 20  1  0  0  0
  2 18  1  0  0  0
  2 17  1  0  0  0
  2  3  1  0  0  0
  3  4  1  0  0  0
  3 19  2  0  0  0
  4  5  1  0  0  0
  4 21  1  0  0  0
  4 22  1  0  0  0
  5 15  1  0  0  0
  5  6  1  0  0  0
  5 18  1  0  0  0
  6  7  1  0  0  0
  6  8  1  0  0  0
  6 23  1  0  0  0
  7 24  1  0  0  0
  7 25  1  0  0  0
  8 14  2  0  0  0
  8  9  1  0  0  0
  9 10  1  0  0  0
  9 11  2  0  0  0
 10 26  1  0  0  0
 10 27  1  0  0  0
 10 28  1  0  0  0
 11 12  1  0  0  0
 11 29  1  0  0  0
 12 13  2  0  0  0
 12 30  1  0  0  0
 13 14  1  0  0  0
 13 31  1  0  0  0
 14 15  1  0  0  0
 15 16  1  0  0  0
 15 32  1  0  0  0
 16 17  1  0  0  0
 16 33  1  0  0  0
 16 34  1  0  0  0
 17 35  1  0  0  0
 17 36  1  0  0  0
 18 37  1  0  0  0
 18 38  1  0  0  0
 19 39  1  0  0  0
 19 40  1  0  0  0
M  END
> <s_m_entry_id>
27829

> <s_m_entry_name>
data_pKa.1

> <s_m_Source_Path>
C:\Users\olshana1\Git\GramNeg-Accumulation\Computational-chemistry-course-project\pKa

> <s_m_Source_File>
data_pKa.csv

> <i_m_Source_File_Index>
1

> <s_m_job_name>
ligprep_comp_chem

> <s_m_source_file>
ligprep_comp_chem.maegz

> <i_m_source_file_index>
1

> <i_lp_mmshare_version>
58128

> <i_f3d_flags>
0

> <s_lp_Force_Field>
S-OPLS

> <r_lp_Energy>
41.196493

> <b_lp_Chiralities_Consistent>
1

> <s_lp_Variant>
2-5_neutral_pka-1

> <s_m_subgroup_title>
ligprep_comp_chem-out1

> <s_m_subgroupid>
ligprep_comp_chem-out1

> <b_m_subgroup_collapsed>
0

$$$$
