3-17_neutral_pka
                    3D
 Schrodinger Suite 2022-2.
 43 46  0  0  1  0            999 V2000
   -1.4294    4.6644   -1.6744 O   0  0  0  0  0  0
   -1.2681    3.6603   -0.6888 C   0  0  1  0  0  0
   -0.1129    3.9207    0.2804 C   0  0  0  0  0  0
    0.2980    2.5346    0.7872 C   0  0  0  0  0  0
   -0.5907    1.5073    0.0183 C   0  0  1  0  0  0
   -0.0225    0.0632   -0.0507 C   0  0  1  0  0  0
    1.4156   -0.1077   -0.2671 N   0  0  1  0  0  0
    1.8422    0.1500   -1.6331 C   0  0  0  0  0  0
   -0.4951   -0.5552    1.2746 C   0  0  0  0  0  0
    0.0046   -1.6123    2.0622 C   0  0  0  0  0  0
    1.2189   -2.4381    1.6648 C   0  0  0  0  0  0
   -0.6680   -1.9619    3.2398 C   0  0  0  0  0  0
   -1.8208   -1.2846    3.6336 C   0  0  0  0  0  0
   -2.3139   -0.2386    2.8588 C   0  0  0  0  0  0
   -1.6378    0.1357    1.6984 C   0  0  0  0  0  0
   -1.9548    1.2219    0.6989 C   0  0  1  0  0  0
   -2.6555    2.5094    1.1880 C   0  0  0  0  0  0
   -2.6388    3.5748    0.0597 C   0  0  0  0  0  0
   -0.8469    2.2992   -1.2676 C   0  0  0  0  0  0
    0.4600    5.0935    0.6017 C   0  0  0  0  0  0
   -2.1453    4.4042   -2.2583 H   0  0  0  0  0  0
    0.1901    2.4362    1.8682 H   0  0  0  0  0  0
    1.3561    2.3862    0.5712 H   0  0  0  0  0  0
   -0.5353   -0.4773   -0.8494 H   0  0  0  0  0  0
    1.9197    0.5005    0.3626 H   0  0  0  0  0  0
    2.8828   -0.1536   -1.7482 H   0  0  0  0  0  0
    1.2436   -0.4080   -2.3541 H   0  0  0  0  0  0
    1.7937    1.2106   -1.8706 H   0  0  0  0  0  0
    1.2840   -3.3717    2.2255 H   0  0  0  0  0  0
    1.1622   -2.7096    0.6102 H   0  0  0  0  0  0
    2.1364   -1.8702    1.8199 H   0  0  0  0  0  0
   -0.3055   -2.7746    3.8529 H   0  0  0  0  0  0
   -2.3332   -1.5733    4.5396 H   0  0  0  0  0  0
   -3.2064    0.2814    3.1737 H   0  0  0  0  0  0
   -2.6381    0.7703   -0.0248 H   0  0  0  0  0  0
   -2.1607    2.9063    2.0755 H   0  0  0  0  0  0
   -3.6927    2.3017    1.4541 H   0  0  0  0  0  0
   -3.4261    3.3340   -0.6573 H   0  0  0  0  0  0
   -2.9063    4.5453    0.4816 H   0  0  0  0  0  0
    0.0419    2.3978   -1.8908 H   0  0  0  0  0  0
   -1.6254    1.8540   -1.8895 H   0  0  0  0  0  0
    1.2881    5.1379    1.2934 H   0  0  0  0  0  0
    0.1090    6.0233    0.1788 H   0  0  0  0  0  0
  1  2  1  0  0  0
  1 21  1  0  0  0
  2 19  1  0  0  0
  2 18  1  0  0  0
  2  3  1  0  0  0
  3  4  1  0  0  0
  3 20  2  0  0  0
  4  5  1  0  0  0
  4 22  1  0  0  0
  4 23  1  0  0  0
  5 16  1  0  0  0
  5  6  1  0  0  0
  5 19  1  0  0  0
  6  7  1  0  0  0
  6  9  1  0  0  0
  6 24  1  0  0  0
  7  8  1  0  0  0
  7 25  1  0  0  0
  8 26  1  0  0  0
  8 27  1  0  0  0
  8 28  1  0  0  0
  9 15  2  0  0  0
  9 10  1  0  0  0
 10 11  1  0  0  0
 10 12  2  0  0  0
 11 29  1  0  0  0
 11 30  1  0  0  0
 11 31  1  0  0  0
 12 13  1  0  0  0
 12 32  1  0  0  0
 13 14  2  0  0  0
 13 33  1  0  0  0
 14 15  1  0  0  0
 14 34  1  0  0  0
 15 16  1  0  0  0
 16 17  1  0  0  0
 16 35  1  0  0  0
 17 18  1  0  0  0
 17 36  1  0  0  0
 17 37  1  0  0  0
 18 38  1  0  0  0
 18 39  1  0  0  0
 19 40  1  0  0  0
 19 41  1  0  0  0
 20 42  1  0  0  0
 20 43  1  0  0  0
M  END
> <s_m_entry_id>
27830

> <s_m_entry_name>
data_pKa.2

> <s_m_Source_Path>
C:\Users\olshana1\Git\GramNeg-Accumulation\Computational-chemistry-course-project\pKa

> <s_m_Source_File>
data_pKa.csv

> <i_m_Source_File_Index>
2

> <s_m_job_name>
ligprep_comp_chem

> <s_m_source_file>
ligprep_comp_chem.maegz

> <i_m_source_file_index>
2

> <i_lp_mmshare_version>
58128

> <i_f3d_flags>
0

> <s_lp_Force_Field>
S-OPLS

> <r_lp_Energy>
43.206213

> <b_lp_Chiralities_Consistent>
1

> <s_lp_Variant>
3-17_neutral_pka-1

> <s_m_subgroup_title>
ligprep_comp_chem-out1

> <s_m_subgroupid>
ligprep_comp_chem-out1

> <b_m_subgroup_collapsed>
0

$$$$
