%chk=3-17_neutral_pka.chk
%mem=2GB
%nproc=2
#P M062X/6-31+G(d,p) Opt Freq SCRF=(SMD, Solvent=Water)

3-17_neutral_pka

0 1
 O              
 C                  1            B1
 C                  2            B2    1            A1
 C                  3            B3    2            A2    1            D1    0
 C                  4            B4    3            A3    2            D2    0
 C                  5            B5    4            A4    3            D3    0
 N                  6            B6    5            A5    4            D4    0
 C                  7            B7    6            A6    5            D5    0
 C                  6            B8    5            A7    4            D6    0
 C                  9            B9    6            A8    5            D7    0
 C                 10           B10    9            A9    6            D8    0
 C                 10           B11    9           A10    6            D9    0
 C                 12           B12   10           A11    9           D10    0
 C                 13           B13   12           A12   10           D11    0
 C                 14           B14   13           A13   12           D12    0
 C                 15           B15   14           A14   13           D13    0
 C                 16           B16   15           A15   14           D14    0
 C                 17           B17   16           A16   15           D15    0
 C                  5           B18    4           A17    3           D16    0
 C                  3           B19    2           A18    1           D17    0
 H                  1           B20    2           A19    3           D18    0
 H                  4           B21    3           A20    2           D19    0
 H                  4           B22    3           A21    2           D20    0
 H                  6           B23    5           A22    4           D21    0
 H                  7           B24    6           A23    5           D22    0
 H                  8           B25    7           A24    6           D23    0
 H                  8           B26    7           A25    6           D24    0
 H                  8           B27    7           A26    6           D25    0
 H                 11           B28   10           A27    9           D26    0
 H                 11           B29   10           A28    9           D27    0
 H                 11           B30   10           A29    9           D28    0
 H                 12           B31   10           A30    9           D29    0
 H                 13           B32   12           A31   10           D30    0
 H                 14           B33   13           A32   12           D31    0
 H                 16           B34   15           A33   14           D32    0
 H                 17           B35   16           A34   15           D33    0
 H                 17           B36   16           A35   15           D34    0
 H                 18           B37   17           A36   16           D35    0
 H                 18           B38   17           A37   16           D36    0
 H                 19           B39    5           A38    4           D37    0
 H                 19           B40    5           A39    4           D38    0
 H                 20           B41    3           A40    2           D39    0
 H                 20           B42    3           A41    2           D40    0

   B1             1.43000000
   B2             1.53337385
   B3             1.55349614
   B4             1.55751421
   B5             1.53215684
   B6             1.47000000
   B7             1.47000000
   B8             1.54753267
   B9             1.52904774
   B10            1.54000000
   B11            1.36615624
   B12            1.56120078
   B13            1.36583211
   B14            1.52870780
   B15            1.54139371
   B16            1.51910481
   B17            1.54409745
   B18            1.51921986
   B19            1.35520000
   B20            0.96000000
   B21            1.07000000
   B22            1.07000000
   B23            1.07000000
   B24            1.00000000
   B25            1.07000000
   B26            1.07000000
   B27            1.07000000
   B28            1.07000000
   B29            1.07000000
   B30            1.07000000
   B31            1.07000000
   B32            1.07000000
   B33            1.07000000
   B34            1.07000000
   B35            1.07000000
   B36            1.07000000
   B37            1.07000000
   B38            1.07000000
   B39            1.07000000
   B40            1.07000000
   B41            1.07000000
   B42            1.07000000
   A1           115.69305036
   A2           106.31941815
   A3           102.39667970
   A4           112.70844973
   A5           112.82057425
   A6           109.47122063
   A7            99.89758886
   A8           129.63006732
   A9           121.10917937
   A10          117.78164284
   A11          120.62323199
   A12          120.59061389
   A13          117.71974519
   A14          129.88896323
   A15          115.69979236
   A16          108.45704497
   A17           99.09421630
   A18          126.81962985
   A19          109.47122063
   A20          113.95012459
   A21          108.95862102
   A22          111.56086752
   A23          109.47122063
   A24          109.47122063
   A25          109.47122063
   A26          109.47122063
   A27          109.47122063
   A28          109.47122063
   A29          109.47122063
   A30          119.68838360
   A31          119.70469275
   A32          121.14012280
   A33          109.72787198
   A34          108.98823265
   A35          110.51749966
   A36          111.65238310
   A37          108.50103583
   A38          110.46100454
   A39          114.02974301
   A40          120.00000000
   A41          120.00000000
   D1          -140.63392089
   D2           -14.14580294
   D3           170.79654559
   D4           -45.35234215
   D5           -63.37481974
   D6            77.12708411
   D7          -151.75712724
   D8             0.10542471
   D9          -179.88170879
   D10           -0.02170276
   D11           -0.06826769
   D12            0.04578447
   D13         -179.66567007
   D14           32.26737990
   D15          169.88699844
   D16           42.42979834
   D17           39.80782862
   D18          178.69132700
   D19         -137.15912192
   D20          101.59058855
   D21         -167.10307371
   D22           56.62518026
   D23         -180.00000000
   D24          -60.00000000
   D25           60.00000000
   D26         -149.99335226
   D27          -29.99335226
   D28           90.00664774
   D29          179.97396029
   D30          179.94260142
   D31         -179.93954095
   D32          -90.56555955
   D33           51.76724488
   D34          -68.39843995
   D35           64.40588400
   D36         -175.23089907
   D37           62.56218529
   D38         -175.60316236
   D39          179.73506587
   D40           -0.26493413
