3-17_charged_pka
                    3D
 Schrodinger Suite 2022-2.
 44 47  0  0  1  0            999 V2000
    0.5828    4.9650    0.2084 C   0  0  0  0  0  0
   -0.0460    3.7890    0.0402 C   0  0  0  0  0  0
    0.3482    2.4461    0.6604 C   0  0  0  0  0  0
   -0.5947    1.3733    0.0230 C   0  0  2  0  0  0
   -0.8974    2.0571   -1.3127 C   0  0  0  0  0  0
   -1.2589    3.4749   -0.8360 C   0  0  2  0  0  0
   -1.4539    4.3913   -1.8973 O   0  0  0  0  0  0
   -2.5854    3.4938   -0.0055 C   0  0  0  0  0  0
   -2.5654    2.5300    1.2124 C   0  0  0  0  0  0
   -1.9196    1.1892    0.7966 C   0  0  2  0  0  0
   -1.5873    0.1596    1.8486 C   0  0  0  0  0  0
   -2.2349   -0.1308    3.0485 C   0  0  0  0  0  0
   -1.8229   -1.2245    3.8047 C   0  0  0  0  0  0
   -0.7967   -2.0460    3.3415 C   0  0  0  0  0  0
   -0.1524   -1.7754    2.1280 C   0  0  0  0  0  0
    0.9019   -2.7612    1.6476 C   0  0  0  0  0  0
   -0.5246   -0.6326    1.3918 C   0  0  0  0  0  0
   -0.0454   -0.0816    0.0401 C   0  0  2  0  0  0
    1.4752   -0.2926   -0.1249 N   0  3  0  0  0  0
    2.0332    0.0219   -1.5195 C   0  0  0  0  0  0
    1.4499    5.0468    0.8473 H   0  0  0  0  0  0
    0.2400    5.8609   -0.2885 H   0  0  0  0  0  0
    0.2773    2.4525    1.7490 H   0  0  0  0  0  0
    1.3968    2.2629    0.4293 H   0  0  0  0  0  0
   -1.7181    1.5823   -1.8532 H   0  0  0  0  0  0
   -0.0375    2.0660   -1.9838 H   0  0  0  0  0  0
   -2.2142    4.1074   -2.4098 H   0  0  0  0  0  0
   -3.4183    3.2151   -0.6541 H   0  0  0  0  0  0
   -2.8045    4.5048    0.3430 H   0  0  0  0  0  0
   -3.5922    2.3721    1.5454 H   0  0  0  0  0  0
   -2.0182    2.9876    2.0375 H   0  0  0  0  0  0
   -2.6530    0.7069    0.1449 H   0  0  0  0  0  0
   -3.0630    0.4712    3.3925 H   0  0  0  0  0  0
   -2.3194   -1.4539    4.7362 H   0  0  0  0  0  0
   -0.5151   -2.9096    3.9270 H   0  0  0  0  0  0
    0.7951   -2.9414    0.5775 H   0  0  0  0  0  0
    1.9052   -2.3783    1.8361 H   0  0  0  0  0  0
    0.8001   -3.7326    2.1335 H   0  0  0  0  0  0
   -0.4719   -0.6726   -0.7727 H   0  0  0  0  0  0
    1.6753   -1.2623    0.0764 H   0  0  0  0  0  0
    1.9606    0.2711    0.5587 H   0  0  0  0  0  0
    3.0733   -0.3039   -1.5068 H   0  0  0  0  0  0
    1.4445   -0.5412   -2.2448 H   0  0  0  0  0  0
    1.9612    1.0981   -1.6689 H   0  0  0  0  0  0
  1  2  2  0  0  0
  1 21  1  0  0  0
  1 22  1  0  0  0
  2  6  1  0  0  0
  2  3  1  0  0  0
  3  4  1  0  0  0
  3 23  1  0  0  0
  3 24  1  0  0  0
  4 10  1  0  0  0
  4 18  1  0  0  0
  4  5  1  0  0  0
  5  6  1  0  0  0
  5 25  1  0  0  0
  5 26  1  0  0  0
  6  7  1  0  0  0
  6  8  1  0  0  0
  7 27  1  0  0  0
  8  9  1  0  0  0
  8 28  1  0  0  0
  8 29  1  0  0  0
  9 10  1  0  0  0
  9 30  1  0  0  0
  9 31  1  0  0  0
 10 11  1  0  0  0
 10 32  1  0  0  0
 11 17  1  0  0  0
 11 12  2  0  0  0
 12 13  1  0  0  0
 12 33  1  0  0  0
 13 14  2  0  0  0
 13 34  1  0  0  0
 14 15  1  0  0  0
 14 35  1  0  0  0
 15 16  1  0  0  0
 15 17  2  0  0  0
 16 36  1  0  0  0
 16 37  1  0  0  0
 16 38  1  0  0  0
 17 18  1  0  0  0
 18 19  1  0  0  0
 18 39  1  0  0  0
 19 20  1  0  0  0
 19 40  1  0  0  0
 19 41  1  0  0  0
 20 42  1  0  0  0
 20 43  1  0  0  0
 20 44  1  0  0  0
M  CHG  1  19   1
M  END
> <s_m_entry_id>
27844

> <s_m_entry_name>
data_pKa.16

> <s_m_Source_Path>
C:\Users\olshana1\Git\GramNeg-Accumulation\Computational-chemistry-course-project\pKa

> <s_m_Source_File>
data_pKa.csv

> <i_m_Source_File_Index>
16

> <s_m_job_name>
ligprep_comp_chem

> <s_m_source_file>
ligprep_comp_chem.maegz

> <i_m_source_file_index>
16

> <i_lp_mmshare_version>
58128

> <i_f3d_flags>
0

> <s_lp_Force_Field>
S-OPLS

> <r_lp_Energy>
41.653973

> <b_lp_Chiralities_Consistent>
1

> <s_lp_Variant>
3-17_charged_pka-1

> <s_m_subgroup_title>
ligprep_comp_chem-out1

> <s_m_subgroupid>
ligprep_comp_chem-out1

> <b_m_subgroup_collapsed>
0

$$$$
