3-45_charged_pka
                    3D
 Schrodinger Suite 2022-2.
 42 45  0  0  1  0            999 V2000
   -5.1160   -1.4729   -4.4384 C   0  0  0  0  0  0
   -4.9371   -1.7827   -2.9594 C   0  0  0  0  0  0
   -5.8434   -2.6665   -2.3631 C   0  0  0  0  0  0
   -5.7768   -2.9405   -0.9995 C   0  0  0  0  0  0
   -4.8119   -2.3184   -0.2131 C   0  0  0  0  0  0
   -3.8948   -1.4420   -0.7956 C   0  0  0  0  0  0
   -3.9317   -1.1860   -2.1703 C   0  0  0  0  0  0
   -2.8355   -0.1859   -2.5357 C   0  0  2  0  0  0
   -2.1002   -0.6308   -3.8144 N   0  3  0  0  0  0
   -1.9797    0.0356   -1.2525 C   0  0  1  0  0  0
   -1.6622    1.5193   -0.9637 C   0  0  0  0  0  0
   -0.4714    1.4990    0.0035 C   0  0  0  0  0  0
    0.0151    2.4837    0.5578 O   0  0  0  0  0  0
    0.0346    0.0350    0.0757 C   0  0  1  0  0  0
    1.5887   -0.0183    0.1302 C   0  0  0  0  0  0
    2.1262    0.4668    1.3477 O   0  0  0  0  0  0
   -0.6579   -0.6618    1.2995 C   0  0  0  0  0  0
   -1.9940   -1.3702    0.9549 C   0  0  0  0  0  0
   -2.8277   -0.6138   -0.1143 C   0  0  2  0  0  0
   -0.5292   -0.5062   -1.2523 C   0  0  0  0  0  0
   -6.1401   -1.6572   -4.7672 H   0  0  0  0  0  0
   -4.9175   -0.4194   -4.6376 H   0  0  0  0  0  0
   -4.4397   -2.0759   -5.0447 H   0  0  0  0  0  0
   -6.6165   -3.1369   -2.9542 H   0  0  0  0  0  0
   -6.4873   -3.6181   -0.5487 H   0  0  0  0  0  0
   -4.7907   -2.5147    0.8487 H   0  0  0  0  0  0
   -3.2867    0.7518   -2.8648 H   0  0  0  0  0  0
   -2.7568   -0.7313   -4.5755 H   0  0  0  0  0  0
   -1.4087    0.0582   -4.0735 H   0  0  0  0  0  0
   -1.6350   -1.5137   -3.6586 H   0  0  0  0  0  0
   -2.5135    2.0470   -0.5328 H   0  0  0  0  0  0
   -1.3713    2.0503   -1.8707 H   0  0  0  0  0  0
    2.0322    0.5484   -0.6903 H   0  0  0  0  0  0
    1.9287   -1.0470    0.0036 H   0  0  0  0  0  0
    3.0840    0.4159    1.3030 H   0  0  0  0  0  0
   -0.8187    0.0430    2.1189 H   0  0  0  0  0  0
    0.0129   -1.4128    1.7203 H   0  0  0  0  0  0
   -2.5718   -1.4776    1.8741 H   0  0  0  0  0  0
   -1.7749   -2.3791    0.6007 H   0  0  0  0  0  0
   -3.3691    0.1697    0.4198 H   0  0  0  0  0  0
    0.0493   -0.1412   -2.1058 H   0  0  0  0  0  0
   -0.4921   -1.5961   -1.3009 H   0  0  0  0  0  0
  1  2  1  0  0  0
  1 21  1  0  0  0
  1 22  1  0  0  0
  1 23  1  0  0  0
  2  7  1  0  0  0
  2  3  2  0  0  0
  3  4  1  0  0  0
  3 24  1  0  0  0
  4  5  2  0  0  0
  4 25  1  0  0  0
  5  6  1  0  0  0
  5 26  1  0  0  0
  6 19  1  0  0  0
  6  7  2  0  0  0
  7  8  1  0  0  0
  8  9  1  0  0  0
  8 10  1  0  0  0
  8 27  1  0  0  0
  9 28  1  0  0  0
  9 29  1  0  0  0
  9 30  1  0  0  0
 10 19  1  0  0  0
 10 20  1  0  0  0
 10 11  1  0  0  0
 11 12  1  0  0  0
 11 31  1  0  0  0
 11 32  1  0  0  0
 12 13  2  0  0  0
 12 14  1  0  0  0
 14 15  1  0  0  0
 14 17  1  0  0  0
 14 20  1  0  0  0
 15 16  1  0  0  0
 15 33  1  0  0  0
 15 34  1  0  0  0
 16 35  1  0  0  0
 17 18  1  0  0  0
 17 36  1  0  0  0
 17 37  1  0  0  0
 18 19  1  0  0  0
 18 38  1  0  0  0
 18 39  1  0  0  0
 19 40  1  0  0  0
 20 41  1  0  0  0
 20 42  1  0  0  0
M  CHG  1   9   1
M  END
> <s_m_entry_id>
27848

> <s_m_entry_name>
data_pKa.20

> <s_m_Source_Path>
C:\Users\olshana1\Git\GramNeg-Accumulation\Computational-chemistry-course-project\pKa

> <s_m_Source_File>
data_pKa.csv

> <i_m_Source_File_Index>
20

> <s_m_job_name>
ligprep_comp_chem

> <s_m_source_file>
ligprep_comp_chem.maegz

> <i_m_source_file_index>
20

> <i_lp_mmshare_version>
58128

> <i_f3d_flags>
0

> <s_lp_Force_Field>
S-OPLS

> <r_lp_Energy>
30.069769

> <b_lp_Chiralities_Consistent>
1

> <s_lp_Variant>
3-45_charged_pka-1

> <s_m_subgroup_title>
ligprep_comp_chem-out1

> <s_m_subgroupid>
ligprep_comp_chem-out1

> <b_m_subgroup_collapsed>
0

$$$$
