3-46_neutral_pka
                    3D
 Schrodinger Suite 2022-2.
 50 53  0  0  1  0            999 V2000
    0.0561    2.3483    0.4778 O   0  0  0  0  0  0
   -0.4574    1.3930   -0.1035 C   0  0  0  0  0  0
    0.0140   -0.0812   -0.0679 C   0  0  2  0  0  0
    1.5663   -0.1323   -0.0452 C   0  0  0  0  0  0
    2.0494   -1.4575   -0.1518 O   0  0  0  0  0  0
   -0.6061   -0.6219   -1.3590 C   0  0  0  0  0  0
   -2.0231   -0.0062   -1.3559 C   0  0  1  0  0  0
   -2.8890   -0.2567   -2.6424 C   0  0  1  0  0  0
   -2.1210   -0.5382   -3.8576 N   0  0  2  0  0  0
   -1.5657    0.6568   -4.4757 C   0  0  0  0  0  0
   -3.8852   -1.3936   -2.2662 C   0  0  1  0  0  0
   -4.2023   -2.6018   -3.2045 C   0  0  2  0  0  0
   -4.6714   -2.2936   -4.6426 C   0  0  0  0  0  0
   -5.2479   -3.5333   -2.5125 C   0  0  0  0  0  0
   -4.9519   -3.8778   -1.0308 C   0  0  0  0  0  0
   -4.6184   -2.6211   -0.2020 C   0  0  0  0  0  0
   -3.4524   -1.8792   -0.8764 C   0  0  2  0  0  0
   -2.9206   -0.5995   -0.2174 C   0  0  1  0  0  0
   -2.1973   -0.8042    1.1494 C   0  0  0  0  0  0
   -0.6459   -0.8105    1.1382 C   0  0  0  0  0  0
   -1.6539    1.4651   -1.0651 C   0  0  0  0  0  0
    1.9578    0.2954    0.8791 H   0  0  0  0  0  0
    1.9958    0.4470   -0.8646 H   0  0  0  0  0  0
    3.0089   -1.4335   -0.1496 H   0  0  0  0  0  0
   -0.6168   -1.7121   -1.3823 H   0  0  0  0  0  0
   -0.0205   -0.3084   -2.2259 H   0  0  0  0  0  0
   -3.4903    0.6364   -2.8277 H   0  0  0  0  0  0
   -2.7261   -0.9910   -4.5278 H   0  0  0  0  0  0
   -1.0705    0.3825   -5.4071 H   0  0  0  0  0  0
   -2.3479    1.3775   -4.7166 H   0  0  0  0  0  0
   -0.8220    1.1352   -3.8405 H   0  0  0  0  0  0
   -4.8518   -0.8972   -2.1456 H   0  0  0  0  0  0
   -3.2753   -3.1739   -3.2755 H   0  0  0  0  0  0
   -5.5716   -1.6783   -4.6383 H   0  0  0  0  0  0
   -3.9199   -1.7687   -5.2282 H   0  0  0  0  0  0
   -4.9028   -3.2103   -5.1862 H   0  0  0  0  0  0
   -5.3794   -4.4488   -3.0912 H   0  0  0  0  0  0
   -6.2211   -3.0402   -2.5472 H   0  0  0  0  0  0
   -4.1157   -4.5771   -0.9833 H   0  0  0  0  0  0
   -5.8048   -4.3970   -0.5924 H   0  0  0  0  0  0
   -4.3605   -2.8882    0.8228 H   0  0  0  0  0  0
   -5.4862   -1.9668   -0.1057 H   0  0  0  0  0  0
   -2.6371   -2.5991   -0.9770 H   0  0  0  0  0  0
   -3.7649    0.0739   -0.0471 H   0  0  0  0  0  0
   -2.6268   -1.6190    1.7321 H   0  0  0  0  0  0
   -2.4703    0.0666    1.7482 H   0  0  0  0  0  0
   -0.2667   -0.4125    2.0814 H   0  0  0  0  0  0
   -0.3264   -1.8536    1.1239 H   0  0  0  0  0  0
   -1.3556    2.0016   -1.9645 H   0  0  0  0  0  0
   -2.4848    2.0118   -0.6187 H   0  0  0  0  0  0
  1  2  2  0  0  0
  2 21  1  0  0  0
  2  3  1  0  0  0
  3 20  1  0  0  0
  3  4  1  0  0  0
  3  6  1  0  0  0
  4  5  1  0  0  0
  4 22  1  0  0  0
  4 23  1  0  0  0
  5 24  1  0  0  0
  6  7  1  0  0  0
  6 25  1  0  0  0
  6 26  1  0  0  0
  7 18  1  0  0  0
  7  8  1  0  0  0
  7 21  1  0  0  0
  8  9  1  0  0  0
  8 11  1  0  0  0
  8 27  1  0  0  0
  9 10  1  0  0  0
  9 28  1  0  0  0
 10 29  1  0  0  0
 10 30  1  0  0  0
 10 31  1  0  0  0
 11 17  1  0  0  0
 11 12  1  0  0  0
 11 32  1  0  0  0
 12 13  1  0  0  0
 12 14  1  0  0  0
 12 33  1  0  0  0
 13 34  1  0  0  0
 13 35  1  0  0  0
 13 36  1  0  0  0
 14 15  1  0  0  0
 14 37  1  0  0  0
 14 38  1  0  0  0
 15 16  1  0  0  0
 15 39  1  0  0  0
 15 40  1  0  0  0
 16 17  1  0  0  0
 16 41  1  0  0  0
 16 42  1  0  0  0
 17 18  1  0  0  0
 17 43  1  0  0  0
 18 19  1  0  0  0
 18 44  1  0  0  0
 19 20  1  0  0  0
 19 45  1  0  0  0
 19 46  1  0  0  0
 20 47  1  0  0  0
 20 48  1  0  0  0
 21 49  1  0  0  0
 21 50  1  0  0  0
M  END
> <s_m_entry_id>
27835

> <s_m_entry_name>
data_pKa.7

> <s_m_Source_Path>
C:\Users\olshana1\Git\GramNeg-Accumulation\Computational-chemistry-course-project\pKa

> <s_m_Source_File>
data_pKa.csv

> <i_m_Source_File_Index>
7

> <s_m_job_name>
ligprep_comp_chem

> <s_m_source_file>
ligprep_comp_chem.maegz

> <i_m_source_file_index>
7

> <i_lp_mmshare_version>
58128

> <i_f3d_flags>
0

> <s_lp_Force_Field>
S-OPLS

> <r_lp_Energy>
38.524721

> <b_lp_Chiralities_Consistent>
1

> <s_lp_Variant>
3-46_neutral_pka-1

> <s_m_subgroup_title>
ligprep_comp_chem-out1

> <s_m_subgroupid>
ligprep_comp_chem-out1

> <b_m_subgroup_collapsed>
0

$$$$
