%chk=3-46_neutral_pka.chk
%mem=2GB
%nproc=2
#P M062X/6-31+G(d,p) Opt Freq SCRF=(SMD, Solvent=Water)

3-46_neutral_pka

0 1
 O              
 C                  1            B1
 C                  2            B2    1            A1
 C                  3            B3    2            A2    1            D1    0
 O                  4            B4    3            A3    2            D2    0
 C                  3            B5    2            A4    1            D3    0
 C                  6            B6    3            A5    2            D4    0
 C                  7            B7    6            A6    3            D5    0
 N                  8            B8    7            A7    6            D6    0
 C                  9            B9    8            A8    7            D7    0
 C                  8           B10    7            A9    6            D8    0
 C                 11           B11    8           A10    7            D9    0
 C                 12           B12   11           A11    8           D10    0
 C                 12           B13   11           A12    8           D11    0
 C                 14           B14   12           A13   11           D12    0
 C                 15           B15   14           A14   12           D13    0
 C                 11           B16    8           A15    7           D14    0
 C                 17           B17   11           A16    8           D15    0
 C                 18           B18   17           A17   11           D16    0
 C                 19           B19   18           A18   17           D17    0
 C                  2           B20    1           A19    3           D18    0
 H                  4           B21    3           A20    2           D19    0
 H                  4           B22    3           A21    2           D20    0
 H                  5           B23    4           A22    3           D21    0
 H                  6           B24    3           A23    2           D22    0
 H                  6           B25    3           A24    2           D23    0
 H                  8           B26    7           A25    6           D24    0
 H                  9           B27    8           A26    7           D25    0
 H                 10           B28    9           A27    8           D26    0
 H                 10           B29    9           A28    8           D27    0
 H                 10           B30    9           A29    8           D28    0
 H                 11           B31    8           A30    7           D29    0
 H                 12           B32   11           A31    8           D30    0
 H                 13           B33   12           A32   11           D31    0
 H                 13           B34   12           A33   11           D32    0
 H                 13           B35   12           A34   11           D33    0
 H                 14           B36   12           A35   11           D34    0
 H                 14           B37   12           A36   11           D35    0
 H                 15           B38   14           A37   12           D36    0
 H                 15           B39   14           A38   12           D37    0
 H                 16           B40   15           A39   14           D38    0
 H                 16           B41   15           A40   14           D39    0
 H                 17           B42   11           A41    8           D40    0
 H                 18           B43   17           A42   11           D41    0
 H                 19           B44   18           A43   17           D42    0
 H                 19           B45   18           A44   17           D43    0
 H                 20           B46   19           A45   18           D44    0
 H                 20           B47   19           A46   18           D45    0
 H                 21           B48    2           A47    1           D46    0
 H                 21           B49    2           A48    1           D47    0

   B1             1.25840305
   B2             1.55205234
   B3             1.54001215
   B4             1.43000881
   B5             1.52433337
   B6             1.53363477
   B7             1.56121596
   B8             1.47002505
   B9             1.46999576
   B10            1.55680463
   B11            1.52566447
   B12            1.53999388
   B13            1.55290922
   B14            1.56405168
   B15            1.55307665
   B16            1.49033053
   B17            1.54847097
   B18            1.53324373
   B19            1.52141399
   B20            1.56842306
   B21            1.07000394
   B22            1.06999874
   B23            0.96000373
   B24            1.07000013
   B25            1.06999930
   B26            1.07000180
   B27            1.00000797
   B28            1.07000546
   B29            1.06999781
   B30            1.06999156
   B31            1.06999760
   B32            1.06999785
   B33            1.07000473
   B34            1.07000073
   B35            1.06999661
   B36            1.06999833
   B37            1.07000314
   B38            1.07000227
   B39            1.06999992
   B40            1.06999863
   B41            1.07000081
   B42            1.07000234
   B43            1.06999683
   B44            1.06999918
   B45            1.07000209
   B46            1.06999785
   B47            1.06999923
   B48            1.07000278
   B49            1.06999996
   A1           126.50146868
   A2           114.74322538
   A3           109.47108796
   A4           101.37492522
   A5           101.44619242
   A6           110.56122782
   A7           106.17654474
   A8           109.47563905
   A9           101.60738480
   A10          116.28407455
   A11          110.63555031
   A12          107.32597583
   A13          110.31773353
   A14          109.50737202
   A15          104.17346839
   A16           96.58772456
   A17          119.02732893
   A18          111.18946193
   A19          126.48350355
   A20          109.47098707
   A21          109.47174250
   A22          109.47199186
   A23          112.59633327
   A24          110.90305668
   A25          117.16912245
   A26          109.46969072
   A27          109.47068034
   A28          109.47147547
   A29          109.47140881
   A30          107.75563371
   A31          109.55182225
   A32          109.47117528
   A33          109.47068548
   A34          109.47169425
   A35          109.26164711
   A36          109.19489129
   A37          109.53929700
   A38          109.38235347
   A39          110.81046107
   A40          109.34260162
   A41          113.81002900
   A42          110.24962067
   A43          110.33257888
   A44          107.59419797
   A45          108.41292478
   A46          111.45948885
   A47          109.09572960
   A48          114.47488821
   D1           -41.94568459
   D2          -177.42684880
   D3          -164.22683909
   D4           -43.03963936
   D5          -178.91293744
   D6           -28.38857431
   D7           -64.81779148
   D8            94.18076783
   D9          -143.32770567
   D10          -61.07691385
   D11          178.49625532
   D12          -56.28307381
   D13           60.13643627
   D14          -17.68668287
   D15           48.75239450
   D16          178.56028525
   D17           62.03871216
   D18         -179.76334895
   D19           62.57412941
   D20          -57.42596855
   D21         -179.99482772
   D22         -165.52321228
   D23           72.97108454
   D24         -149.88156785
   D25          175.18358649
   D26          179.99970484
   D27          -60.00077837
   D28           59.99970349
   D29           94.22085808
   D30           59.27713433
   D31          -59.33632295
   D32           60.66319995
   D33         -179.33662181
   D34         -176.96205192
   D35           63.18279193
   D36          -59.98956893
   D37         -179.98297448
   D38          179.53189341
   D39           59.16188991
   D40          -68.07549724
   D41           56.78442607
   D42          -60.30896018
   D43         -179.98705842
   D44          171.25474497
   D45          -68.45536263
   D46           81.12126590
   D47          -40.36247273
