3-46_charged_pka
                    3D
 Schrodinger Suite 2022-2.
 51 54  0  0  1  0            999 V2000
   -0.3829    1.6140   -0.8101 C   0  0  0  0  0  0
   -0.0160    0.4461    0.1184 N   0  3  0  0  0  0
    1.4650    0.0079    0.0972 C   0  0  1  0  0  0
    1.9777   -0.7769    1.3385 C   0  0  2  0  0  0
    2.4948   -2.1112    0.7837 C   0  0  2  0  0  0
    3.4258   -2.7758    1.8121 C   0  0  0  0  0  0
    2.6157   -3.0981    3.0829 C   0  0  0  0  0  0
    1.9164   -1.8399    3.6556 C   0  0  0  0  0  0
    1.1133   -0.9901    2.6204 C   0  0  1  0  0  0
    0.5502    0.2625    3.3249 C   0  0  0  0  0  0
    3.0864   -1.7077   -0.5731 C   0  0  1  0  0  0
    3.5180   -2.8873   -1.4984 C   0  0  0  0  0  0
    2.5686   -3.2609   -2.6674 C   0  0  0  0  0  0
    1.6037   -2.1300   -3.1283 C   0  0  1  0  0  0
    0.6650   -2.5569   -4.2898 C   0  0  0  0  0  0
   -0.2140   -3.5934   -3.8978 O   0  0  0  0  0  0
    0.8690   -1.5951   -1.8965 C   0  0  0  0  0  0
    1.9586   -0.7911   -1.1570 C   0  0  1  0  0  0
    2.4867    0.0525   -2.3373 C   0  0  0  0  0  0
    2.4218   -0.8857   -3.5531 C   0  0  0  0  0  0
    2.8852   -0.6493   -4.6679 O   0  0  0  0  0  0
   -1.4365    1.8237   -0.6252 H   0  0  0  0  0  0
    0.2464    2.4618   -0.5368 H   0  0  0  0  0  0
   -0.2188    1.2932   -1.8379 H   0  0  0  0  0  0
   -0.5933   -0.3531   -0.1030 H   0  0  0  0  0  0
   -0.2390    0.7240    1.0637 H   0  0  0  0  0  0
    1.9596    0.9815    0.1210 H   0  0  0  0  0  0
    2.8532   -0.2286    1.6981 H   0  0  0  0  0  0
    1.6551   -2.7922    0.6261 H   0  0  0  0  0  0
    4.2729   -2.1262    2.0394 H   0  0  0  0  0  0
    3.8757   -3.6773    1.3959 H   0  0  0  0  0  0
    3.2679   -3.5369    3.8388 H   0  0  0  0  0  0
    1.8654   -3.8567    2.8548 H   0  0  0  0  0  0
    2.6912   -1.2057    4.0905 H   0  0  0  0  0  0
    1.2780   -2.1146    4.4969 H   0  0  0  0  0  0
    0.2661   -1.6035    2.3080 H   0  0  0  0  0  0
    1.3518    0.9404    3.6204 H   0  0  0  0  0  0
   -0.1395    0.8256    2.7005 H   0  0  0  0  0  0
   -0.0003   -0.0072    4.2271 H   0  0  0  0  0  0
    3.9738   -1.0972   -0.3847 H   0  0  0  0  0  0
    3.8794   -3.7505   -0.9394 H   0  0  0  0  0  0
    4.4321   -2.5428   -1.9856 H   0  0  0  0  0  0
    1.9680   -4.1104   -2.3383 H   0  0  0  0  0  0
    3.1495   -3.6373   -3.5119 H   0  0  0  0  0  0
    1.2412   -2.9086   -5.1476 H   0  0  0  0  0  0
    0.0587   -1.7201   -4.6419 H   0  0  0  0  0  0
   -0.7571   -3.8354   -4.6519 H   0  0  0  0  0  0
    0.4541   -2.3991   -1.2868 H   0  0  0  0  0  0
    0.0224   -0.9741   -2.1961 H   0  0  0  0  0  0
    3.5050    0.4015   -2.1643 H   0  0  0  0  0  0
    1.8679    0.9283   -2.5277 H   0  0  0  0  0  0
  1  2  1  0  0  0
  1 22  1  0  0  0
  1 23  1  0  0  0
  1 24  1  0  0  0
  2  3  1  0  0  0
  2 25  1  0  0  0
  2 26  1  0  0  0
  3 18  1  0  0  0
  3  4  1  0  0  0
  3 27  1  0  0  0
  4  9  1  0  0  0
  4  5  1  0  0  0
  4 28  1  0  0  0
  5  6  1  0  0  0
  5 11  1  0  0  0
  5 29  1  0  0  0
  6  7  1  0  0  0
  6 30  1  0  0  0
  6 31  1  0  0  0
  7  8  1  0  0  0
  7 32  1  0  0  0
  7 33  1  0  0  0
  8  9  1  0  0  0
  8 34  1  0  0  0
  8 35  1  0  0  0
  9 10  1  0  0  0
  9 36  1  0  0  0
 10 37  1  0  0  0
 10 38  1  0  0  0
 10 39  1  0  0  0
 11 18  1  0  0  0
 11 12  1  0  0  0
 11 40  1  0  0  0
 12 13  1  0  0  0
 12 41  1  0  0  0
 12 42  1  0  0  0
 13 14  1  0  0  0
 13 43  1  0  0  0
 13 44  1  0  0  0
 14 20  1  0  0  0
 14 15  1  0  0  0
 14 17  1  0  0  0
 15 16  1  0  0  0
 15 45  1  0  0  0
 15 46  1  0  0  0
 16 47  1  0  0  0
 17 18  1  0  0  0
 17 48  1  0  0  0
 17 49  1  0  0  0
 18 19  1  0  0  0
 19 20  1  0  0  0
 19 50  1  0  0  0
 19 51  1  0  0  0
 20 21  2  0  0  0
M  CHG  1   2   1
M  END
> <s_m_entry_id>
27849

> <s_m_entry_name>
data_pKa.21

> <s_m_Source_Path>
C:\Users\olshana1\Git\GramNeg-Accumulation\Computational-chemistry-course-project\pKa

> <s_m_Source_File>
data_pKa.csv

> <i_m_Source_File_Index>
21

> <s_m_job_name>
ligprep_comp_chem

> <s_m_source_file>
ligprep_comp_chem.maegz

> <i_m_source_file_index>
21

> <i_lp_mmshare_version>
58128

> <i_f3d_flags>
0

> <s_lp_Force_Field>
S-OPLS

> <r_lp_Energy>
42.988764

> <b_lp_Chiralities_Consistent>
1

> <s_lp_Variant>
3-46_charged_pka-1

> <s_m_subgroup_title>
ligprep_comp_chem-out1

> <s_m_subgroupid>
ligprep_comp_chem-out1

> <b_m_subgroup_collapsed>
0

$$$$
