%chk=4-3_neutral_pka.chk
%mem=2GB
%nproc=2
#P M062X/6-31+G(d,p) Opt Freq SCRF=(SMD, Solvent=Water)

4-3_neutral_pka

0 1
 O              
 C                  1            B1
 C                  2            B2    1            A1
 C                  3            B3    2            A2    1            D1    0
 C                  4            B4    3            A3    2            D2    0
 C                  5            B5    4            A4    3            D3    0
 C                  6            B6    5            A5    4            D4    0
 C                  7            B7    6            A6    5            D5    0
 N                  8            B8    7            A7    6            D6    0
 C                  6            B9    5            A8    4            D7    0
 C                 10           B10    6            A9    5            D8    0
 C                 11           B11   10           A10    6            D9    0
 C                 11           B12   10           A11    6           D10    0
 C                 13           B13   11           A12   10           D11    0
 C                 14           B14   13           A13   11           D12    0
 C                 15           B15   14           A14   13           D13    0
 C                 16           B16   15           A15   14           D14    0
 C                 17           B17   16           A16   15           D15    0
 C                 18           B18   17           A17   16           D16    0
 C                  5           B19    4           A18    3           D17    0
 C                  3           B20    2           A19    1           D18    0
 H                  1           B21    2           A20    3           D19    0
 H                  4           B22    3           A21    2           D20    0
 H                  4           B23    3           A22    2           D21    0
 H                  6           B24    5           A23    4           D22    0
 H                  7           B25    6           A24    5           D23    0
 H                  7           B26    6           A25    5           D24    0
 H                  8           B27    7           A26    6           D25    0
 H                  8           B28    7           A27    6           D26    0
 H                  9           B29    8           A28    7           D27    0
 H                  9           B30    8           A29    7           D28    0
 H                 12           B31   11           A30   10           D29    0
 H                 12           B32   11           A31   10           D30    0
 H                 12           B33   11           A32   10           D31    0
 H                 13           B34   11           A33   10           D32    0
 H                 14           B35   13           A34   11           D33    0
 H                 15           B36   14           A35   13           D34    0
 H                 17           B37   16           A36   15           D35    0
 H                 18           B38   17           A37   16           D36    0
 H                 18           B39   17           A38   16           D37    0
 H                 19           B40   18           A39   17           D38    0
 H                 19           B41   18           A40   17           D39    0
 H                 20           B42    5           A41    4           D40    0
 H                 20           B43    5           A42    4           D41    0
 H                 21           B44    3           A43    2           D42    0
 H                 21           B45    3           A44    2           D43    0

   B1             1.43000001
   B2             1.53329381
   B3             1.55343737
   B4             1.55755346
   B5             1.53122391
   B6             1.54000000
   B7             1.54000003
   B8             1.47000000
   B9             1.54668041
   B10            1.52892002
   B11            1.53999999
   B12            1.36617521
   B13            1.56133659
   B14            1.36595576
   B15            1.52868992
   B16            1.54253494
   B17            1.51910916
   B18            1.54427650
   B19            1.51912895
   B20            1.35520001
   B21            0.96000000
   B22            1.07000001
   B23            1.07000000
   B24            1.07000001
   B25            1.07000000
   B26            1.07000000
   B27            1.07000000
   B28            1.07000000
   B29            1.00000000
   B30            0.99999999
   B31            1.07000000
   B32            1.07000002
   B33            1.07000003
   B34            1.07000000
   B35            1.07000001
   B36            1.07000000
   B37            1.07000000
   B38            1.07000000
   B39            1.07000000
   B40            1.07000000
   B41            1.06999999
   B42            1.07000000
   B43            1.07000000
   B44            1.07000000
   B45            1.07000001
   A1           115.69241245
   A2           106.31196173
   A3           102.39737119
   A4           112.73074366
   A5           111.83953317
   A6           109.47122180
   A7           109.47122150
   A8           100.07131269
   A9           129.72352711
   A10          121.11990592
   A11          117.76018845
   A12          120.62477092
   A13          120.60268039
   A14          117.71830699
   A15          129.89874637
   A16          115.71680248
   A17          108.45599307
   A18           99.08422554
   A19          126.82329524
   A20          109.47122040
   A21          113.94644676
   A22          108.96207778
   A23          112.57424131
   A24          109.47121988
   A25          109.47121997
   A26          109.47122077
   A27          109.47122065
   A28          109.47122064
   A29          109.47122096
   A30          109.47121934
   A31          109.47122082
   A32          109.47122079
   A33          119.68761453
   A34          119.69865897
   A35          121.14084037
   A36          109.72133299
   A37          108.98907580
   A38          110.51722683
   A39          111.64975946
   A40          108.49830681
   A41          110.46835358
   A42          114.02856827
   A43          119.99999900
   A44          120.00000139
   D1          -140.64491651
   D2           -14.14636168
   D3           170.87808063
   D4          -166.77880035
   D5           -55.27508567
   D6          -180.00000000
   D7            76.99497253
   D8          -151.65053436
   D9             0.12034388
   D10         -179.86430632
   D11           -0.02482526
   D12           -0.08321480
   D13            0.04968467
   D14         -179.62539691
   D15           32.28236865
   D16          169.87003397
   D17           42.44515984
   D18           39.79827541
   D19          178.69145730
   D20         -137.15724297
   D21          101.59233903
   D22          -45.10718331
   D23         -175.27508567
   D24           64.72491465
   D25           60.00000055
   D26          -59.99999984
   D27         -180.00000000
   D28          -60.00000000
   D29          150.00793192
   D30          -89.99206822
   D31           30.00793221
   D32          179.96972816
   D33          179.92944943
   D34         -179.93287004
   D35          -90.55977270
   D36           51.75293403
   D37          -68.41294749
   D38           64.40212534
   D39         -175.23637348
   D40           62.55092826
   D41         -175.61190827
   D42          179.73416988
   D43           -0.26582405
