4-3_charged_pka
                    3D
 Schrodinger Suite 2022-2.
 47 50  0  0  1  0            999 V2000
   -3.1498    3.3938    1.9044 C   0  0  0  0  0  0
   -2.1260    2.9299    1.1675 C   0  0  0  0  0  0
   -1.9161    1.4873    0.7009 C   0  0  0  0  0  0
   -0.5281    1.4491   -0.0126 C   0  0  2  0  0  0
    0.1645    2.5860    0.7448 C   0  0  0  0  0  0
   -0.9038    3.6877    0.6496 C   0  0  2  0  0  0
   -0.5849    4.8463    1.3981 O   0  0  0  0  0  0
   -1.1114    4.1740   -0.8240 C   0  0  0  0  0  0
   -1.4727    3.0272   -1.8077 C   0  0  0  0  0  0
   -0.5864    1.7938   -1.5211 C   0  0  2  0  0  0
   -0.9317    0.4725   -2.1653 C   0  0  0  0  0  0
   -1.4734    0.1972   -3.4202 C   0  0  0  0  0  0
   -1.6934   -1.1254   -3.7984 C   0  0  0  0  0  0
   -1.3651   -2.1656   -2.9289 C   0  0  0  0  0  0
   -0.7969   -1.9003   -1.6773 C   0  0  0  0  0  0
   -0.4965   -3.0773   -0.7632 C   0  0  0  0  0  0
   -0.5663   -0.5670   -1.2996 C   0  0  0  0  0  0
    0.0813    0.0214   -0.0405 C   0  0  1  0  0  0
    1.6345    0.0181   -0.0473 C   0  0  0  0  0  0
    2.2739   -1.3802   -0.0845 C   0  0  0  0  0  0
    3.7978   -1.2614    0.0135 N   0  3  0  0  0  0
   -3.9488    2.7395    2.2210 H   0  0  0  0  0  0
   -3.2033    4.4313    2.2002 H   0  0  0  0  0  0
   -2.7198    1.1375    0.0514 H   0  0  0  0  0  0
   -1.9229    0.8327    1.5740 H   0  0  0  0  0  0
    1.1060    2.8896    0.2840 H   0  0  0  0  0  0
    0.3818    2.3128    1.7806 H   0  0  0  0  0  0
    0.2032    5.2446    1.0219 H   0  0  0  0  0  0
   -0.1980    4.6582   -1.1746 H   0  0  0  0  0  0
   -1.8893    4.9385   -0.8680 H   0  0  0  0  0  0
   -1.3159    3.3812   -2.8276 H   0  0  0  0  0  0
   -2.5297    2.7770   -1.7066 H   0  0  0  0  0  0
    0.4114    2.0567   -1.8799 H   0  0  0  0  0  0
   -1.7353    0.9953   -4.0993 H   0  0  0  0  0  0
   -2.1252   -1.3449   -4.7639 H   0  0  0  0  0  0
   -1.5551   -3.1850   -3.2334 H   0  0  0  0  0  0
   -0.3781   -2.7726    0.2762 H   0  0  0  0  0  0
   -1.3218   -3.7902   -0.7858 H   0  0  0  0  0  0
    0.4005   -3.6028   -1.0911 H   0  0  0  0  0  0
   -0.2406   -0.5192    0.8504 H   0  0  0  0  0  0
    1.9886    0.5369    0.8451 H   0  0  0  0  0  0
    1.9995    0.5989   -0.8958 H   0  0  0  0  0  0
    2.1036   -1.9054   -1.0240 H   0  0  0  0  0  0
    1.9880   -2.0068    0.7610 H   0  0  0  0  0  0
    4.2202   -2.1787   -0.0111 H   0  0  0  0  0  0
    4.1555   -0.7180   -0.7592 H   0  0  0  0  0  0
    4.0568   -0.8077    0.8781 H   0  0  0  0  0  0
  1  2  2  0  0  0
  1 22  1  0  0  0
  1 23  1  0  0  0
  2  6  1  0  0  0
  2  3  1  0  0  0
  3  4  1  0  0  0
  3 24  1  0  0  0
  3 25  1  0  0  0
  4 10  1  0  0  0
  4 18  1  0  0  0
  4  5  1  0  0  0
  5  6  1  0  0  0
  5 26  1  0  0  0
  5 27  1  0  0  0
  6  7  1  0  0  0
  6  8  1  0  0  0
  7 28  1  0  0  0
  8  9  1  0  0  0
  8 29  1  0  0  0
  8 30  1  0  0  0
  9 10  1  0  0  0
  9 31  1  0  0  0
  9 32  1  0  0  0
 10 11  1  0  0  0
 10 33  1  0  0  0
 11 17  1  0  0  0
 11 12  2  0  0  0
 12 13  1  0  0  0
 12 34  1  0  0  0
 13 14  2  0  0  0
 13 35  1  0  0  0
 14 15  1  0  0  0
 14 36  1  0  0  0
 15 16  1  0  0  0
 15 17  2  0  0  0
 16 37  1  0  0  0
 16 38  1  0  0  0
 16 39  1  0  0  0
 17 18  1  0  0  0
 18 19  1  0  0  0
 18 40  1  0  0  0
 19 20  1  0  0  0
 19 41  1  0  0  0
 19 42  1  0  0  0
 20 21  1  0  0  0
 20 43  1  0  0  0
 20 44  1  0  0  0
 21 45  1  0  0  0
 21 46  1  0  0  0
 21 47  1  0  0  0
M  CHG  1  21   1
M  END
> <s_m_entry_id>
27846

> <s_m_entry_name>
data_pKa.18

> <s_m_Source_Path>
C:\Users\olshana1\Git\GramNeg-Accumulation\Computational-chemistry-course-project\pKa

> <s_m_Source_File>
data_pKa.csv

> <i_m_Source_File_Index>
18

> <s_m_job_name>
ligprep_comp_chem

> <s_m_source_file>
ligprep_comp_chem.maegz

> <i_m_source_file_index>
18

> <i_lp_mmshare_version>
58128

> <i_f3d_flags>
0

> <s_lp_Force_Field>
S-OPLS

> <r_lp_Energy>
39.204955

> <b_lp_Chiralities_Consistent>
1

> <s_lp_Variant>
4-3_charged_pka-1

> <s_m_subgroup_title>
ligprep_comp_chem-out1

> <s_m_subgroupid>
ligprep_comp_chem-out1

> <b_m_subgroup_collapsed>
0

$$$$
