4-4_neutral_pka
                    3D
 Schrodinger Suite 2022-2.
 45 48  0  0  1  0            999 V2000
   -0.5572    4.9177    1.3733 O   0  0  0  0  0  0
   -0.9040    3.7476    0.6539 C   0  0  1  0  0  0
   -2.1280    2.9645    1.1975 C   0  0  2  0  0  0
   -2.3720    3.0964    2.7171 C   0  0  0  0  0  0
   -1.8408    1.5025    0.7712 C   0  0  0  0  0  0
   -0.4823    1.4931   -0.0002 C   0  0  1  0  0  0
    0.1627    0.0789   -0.0426 C   0  0  2  0  0  0
    1.7101    0.0561   -0.1122 C   0  0  0  0  0  0
    2.3133    0.3381    1.1774 N   0  0  0  0  0  0
   -0.4840   -0.5271   -1.2883 C   0  0  0  0  0  0
   -0.6159   -1.8681   -1.6757 C   0  0  0  0  0  0
   -0.1339   -3.0048   -0.7901 C   0  0  0  0  0  0
   -1.2208   -2.1672   -2.9025 C   0  0  0  0  0  0
   -1.6695   -1.1464   -3.7417 C   0  0  0  0  0  0
   -1.5219    0.1872   -3.3632 C   0  0  0  0  0  0
   -0.9426    0.4915   -2.1317 C   0  0  0  0  0  0
   -0.6092    1.8241   -1.5063 C   0  0  1  0  0  0
   -1.5189    3.0436   -1.7768 C   0  0  0  0  0  0
   -1.1353    4.2114   -0.8240 C   0  0  0  0  0  0
    0.2042    2.6746    0.7092 C   0  0  0  0  0  0
   -1.2580    5.5633    1.2581 H   0  0  0  0  0  0
   -3.0387    3.3175    0.7102 H   0  0  0  0  0  0
   -1.5001    2.7838    3.2927 H   0  0  0  0  0  0
   -2.6019    4.1254    2.9944 H   0  0  0  0  0  0
   -3.2156    2.4815    3.0326 H   0  0  0  0  0  0
   -2.6511    1.0965    0.1637 H   0  0  0  0  0  0
   -1.7796    0.8603    1.6519 H   0  0  0  0  0  0
   -0.1431   -0.4910    0.8366 H   0  0  0  0  0  0
    2.0804    0.7693   -0.8492 H   0  0  0  0  0  0
    2.0584   -0.9280   -0.4262 H   0  0  0  0  0  0
    2.0449   -0.3737    1.8419 H   0  0  0  0  0  0
    3.3194    0.2915    1.0991 H   0  0  0  0  0  0
   -0.4934   -3.9760   -1.1329 H   0  0  0  0  0  0
    0.9553   -3.0246   -0.7530 H   0  0  0  0  0  0
   -0.4971   -2.8666    0.2287 H   0  0  0  0  0  0
   -1.3384   -3.1945   -3.2158 H   0  0  0  0  0  0
   -2.1250   -1.3902   -4.6903 H   0  0  0  0  0  0
   -1.8580    0.9697   -4.0276 H   0  0  0  0  0  0
    0.3718    2.1001   -1.9006 H   0  0  0  0  0  0
   -2.5679    2.7796   -1.6369 H   0  0  0  0  0  0
   -1.4009    3.3835   -2.8064 H   0  0  0  0  0  0
   -0.2275    4.6871   -1.2010 H   0  0  0  0  0  0
   -1.9125    4.9763   -0.8678 H   0  0  0  0  0  0
    0.4691    2.4254    1.7389 H   0  0  0  0  0  0
    1.1190    2.9974    0.2090 H   0  0  0  0  0  0
  1  2  1  0  0  0
  1 21  1  0  0  0
  2 20  1  0  0  0
  2 19  1  0  0  0
  2  3  1  0  0  0
  3  4  1  0  0  0
  3  5  1  0  0  0
  3 22  1  0  0  0
  4 23  1  0  0  0
  4 24  1  0  0  0
  4 25  1  0  0  0
  5  6  1  0  0  0
  5 26  1  0  0  0
  5 27  1  0  0  0
  6 17  1  0  0  0
  6  7  1  0  0  0
  6 20  1  0  0  0
  7  8  1  0  0  0
  7 10  1  0  0  0
  7 28  1  0  0  0
  8  9  1  0  0  0
  8 29  1  0  0  0
  8 30  1  0  0  0
  9 31  1  0  0  0
  9 32  1  0  0  0
 10 16  2  0  0  0
 10 11  1  0  0  0
 11 12  1  0  0  0
 11 13  2  0  0  0
 12 33  1  0  0  0
 12 34  1  0  0  0
 12 35  1  0  0  0
 13 14  1  0  0  0
 13 36  1  0  0  0
 14 15  2  0  0  0
 14 37  1  0  0  0
 15 16  1  0  0  0
 15 38  1  0  0  0
 16 17  1  0  0  0
 17 18  1  0  0  0
 17 39  1  0  0  0
 18 19  1  0  0  0
 18 40  1  0  0  0
 18 41  1  0  0  0
 19 42  1  0  0  0
 19 43  1  0  0  0
 20 44  1  0  0  0
 20 45  1  0  0  0
M  END
> <s_m_entry_id>
27833

> <s_m_entry_name>
data_pKa.5

> <s_m_Source_Path>
C:\Users\olshana1\Git\GramNeg-Accumulation\Computational-chemistry-course-project\pKa

> <s_m_Source_File>
data_pKa.csv

> <i_m_Source_File_Index>
5

> <s_m_job_name>
ligprep_comp_chem

> <s_m_source_file>
ligprep_comp_chem.maegz

> <i_m_source_file_index>
5

> <i_lp_mmshare_version>
58128

> <i_f3d_flags>
0

> <s_lp_Force_Field>
S-OPLS

> <r_lp_Energy>
35.379893

> <b_lp_Chiralities_Consistent>
1

> <s_lp_Variant>
4-4_neutral_pka-1

> <s_m_subgroup_title>
ligprep_comp_chem-out1

> <s_m_subgroupid>
ligprep_comp_chem-out1

> <b_m_subgroup_collapsed>
0

$$$$
