2-58
                    3D
 Schrodinger Suite 2022-2.
 71 75  0  0  1  0            999 V2000
  -27.1680  -21.5744  -25.2128 O   0  0  0  0  0  0
  -26.4490  -21.0990  -24.3336 C   0  0  0  0  0  0
  -26.5069  -19.7964  -24.0303 N   0  0  0  0  0  0
  -27.4365  -18.8760  -24.6813 C   0  0  0  0  0  0
  -28.8891  -19.0277  -24.2378 C   0  0  0  0  0  0
  -29.9488  -18.9850  -25.1710 C   0  0  0  0  0  0
  -29.6971  -18.8754  -26.5149 O   0  0  0  0  0  0
  -29.7703  -17.5357  -26.9792 C   0  0  0  0  0  0
  -31.2842  -19.0640  -24.7203 C   0  0  0  0  0  0
  -31.5879  -19.1668  -23.3478 C   0  0  0  0  0  0
  -32.9207  -19.2152  -22.9994 O   0  0  0  0  0  0
  -33.2542  -19.1473  -21.6175 C   0  0  0  0  0  0
  -30.5244  -19.2110  -22.4156 C   0  0  0  0  0  0
  -29.1935  -19.1453  -22.8647 C   0  0  0  0  0  0
  -25.5051  -22.0281  -23.5326 C   0  0  1  0  0  0
  -23.9765  -21.8204  -23.8235 C   0  0  2  0  0  0
  -23.2524  -22.7479  -24.8645 C   0  0  1  0  0  0
  -21.6945  -22.5685  -24.7339 C   0  0  1  0  0  0
  -21.3120  -21.2843  -25.1976 O   0  0  0  0  0  0
  -21.1118  -22.7122  -23.2978 C   0  0  2  0  0  0
  -20.6763  -24.0382  -23.0430 O   0  0  0  0  0  0
  -22.0695  -22.2419  -22.2116 C   0  0  0  0  0  0
  -23.3219  -21.8152  -22.4578 C   0  0  0  0  0  0
  -24.3587  -21.3314  -21.4719 C   0  0  1  0  0  0
  -25.6560  -22.0080  -21.9724 C   0  0  1  0  0  0
  -26.8969  -21.3644  -21.3117 C   0  0  0  0  0  0
  -27.0240  -22.0708  -19.9779 C   0  0  0  0  0  0
  -25.9972  -23.1873  -19.9334 C   0  0  1  0  0  0
  -24.6570  -22.7523  -19.3026 C   0  0  0  0  0  0
  -24.0905  -21.4688  -19.9466 C   0  0  0  0  0  0
  -26.4917  -24.3489  -19.2944 O   0  0  0  0  0  0
  -25.7389  -23.4423  -21.4105 C   0  0  0  0  0  0
  -27.9691  -21.8152  -19.0587 C   0  0  0  0  0  0
  -23.5758  -24.2653  -24.6465 C   0  0  0  0  0  0
  -23.9698  -24.9466  -25.6134 O   0  5  0  0  0  0
  -23.4460  -24.7788  -23.5142 O   0  0  0  0  0  0
  -23.6903  -22.3242  -26.2983 C   0  0  0  0  0  0
  -25.9010  -19.4158  -23.3163 H   0  0  0  0  0  0
  -27.1360  -17.8698  -24.4235 H   0  0  0  0  0  0
  -27.3358  -18.9510  -25.7643 H   0  0  0  0  0  0
  -29.5466  -17.5012  -28.0446 H   0  0  0  0  0  0
  -29.0446  -16.8966  -26.4680 H   0  0  0  0  0  0
  -30.7675  -17.1183  -26.8292 H   0  0  0  0  0  0
  -32.0896  -19.0260  -25.4368 H   0  0  0  0  0  0
  -34.3387  -19.1269  -21.5125 H   0  0  0  0  0  0
  -32.8612  -18.2407  -21.1561 H   0  0  0  0  0  0
  -32.8874  -20.0162  -21.0695 H   0  0  0  0  0  0
  -30.7009  -19.2825  -21.3495 H   0  0  0  0  0  0
  -28.4000  -19.1263  -22.1334 H   0  0  0  0  0  0
  -25.7884  -23.0287  -23.8618 H   0  0  0  0  0  0
  -23.8459  -20.7944  -24.1697 H   0  0  0  0  0  0
  -21.1895  -23.2731  -25.3983 H   0  0  0  0  0  0
  -21.5837  -21.1992  -26.0988 H   0  0  0  0  0  0
  -20.2142  -22.0988  -23.2152 H   0  0  0  0  0  0
  -20.3064  -24.0580  -22.1719 H   0  0  0  0  0  0
  -21.6790  -22.2401  -21.2054 H   0  0  0  0  0  0
  -24.4331  -20.2625  -21.6770 H   0  0  0  0  0  0
  -26.7887  -20.2889  -21.1718 H   0  0  0  0  0  0
  -27.8067  -21.5588  -21.8827 H   0  0  0  0  0  0
  -24.7773  -22.5953  -18.2302 H   0  0  0  0  0  0
  -23.9276  -23.5565  -19.4109 H   0  0  0  0  0  0
  -23.0390  -21.3368  -19.7003 H   0  0  0  0  0  0
  -24.5871  -20.6274  -19.4616 H   0  0  0  0  0  0
  -26.6585  -24.1308  -18.3872 H   0  0  0  0  0  0
  -26.5772  -23.9794  -21.8609 H   0  0  0  0  0  0
  -24.8393  -24.0319  -21.5808 H   0  0  0  0  0  0
  -28.6921  -21.0236  -19.2046 H   0  0  0  0  0  0
  -28.0423  -22.3808  -18.1395 H   0  0  0  0  0  0
  -23.4131  -21.2983  -26.5345 H   0  0  0  0  0  0
  -24.7689  -22.3498  -26.4043 H   0  0  0  0  0  0
  -23.2518  -22.9584  -27.0718 H   0  0  0  0  0  0
  1  2  2  0  0  0
  2  3  1  0  0  0
  2 15  1  0  0  0
  3  4  1  0  0  0
  3 38  1  0  0  0
  4  5  1  0  0  0
  4 39  1  0  0  0
  4 40  1  0  0  0
  5 14  1  0  0  0
  5  6  2  0  0  0
  6  7  1  0  0  0
  6  9  1  0  0  0
  7  8  1  0  0  0
  8 41  1  0  0  0
  8 42  1  0  0  0
  8 43  1  0  0  0
  9 10  2  0  0  0
  9 44  1  0  0  0
 10 11  1  0  0  0
 10 13  1  0  0  0
 11 12  1  0  0  0
 12 45  1  0  0  0
 12 46  1  0  0  0
 12 47  1  0  0  0
 13 14  2  0  0  0
 13 48  1  0  0  0
 14 49  1  0  0  0
 15 25  1  0  0  0
 15 16  1  0  0  0
 15 50  1  0  0  0
 16 23  1  0  0  0
 16 17  1  0  0  0
 16 51  1  0  0  0
 17 18  1  0  0  0
 17 34  1  0  0  0
 17 37  1  0  0  0
 18 19  1  0  0  0
 18 20  1  0  0  0
 18 52  1  0  0  0
 19 53  1  0  0  0
 20 21  1  0  0  0
 20 22  1  0  0  0
 20 54  1  0  0  0
 21 55  1  0  0  0
 22 23  2  0  0  0
 22 56  1  0  0  0
 23 24  1  0  0  0
 24 30  1  0  0  0
 24 25  1  0  0  0
 24 57  1  0  0  0
 25 32  1  0  0  0
 25 26  1  0  0  0
 26 27  1  0  0  0
 26 58  1  0  0  0
 26 59  1  0  0  0
 27 28  1  0  0  0
 27 33  2  0  0  0
 28 29  1  0  0  0
 28 31  1  0  0  0
 28 32  1  0  0  0
 29 30  1  0  0  0
 29 60  1  0  0  0
 29 61  1  0  0  0
 30 62  1  0  0  0
 30 63  1  0  0  0
 31 64  1  0  0  0
 32 65  1  0  0  0
 32 66  1  0  0  0
 33 67  1  0  0  0
 33 68  1  0  0  0
 34 35  1  0  0  0
 34 36  2  0  0  0
 37 69  1  0  0  0
 37 70  1  0  0  0
 37 71  1  0  0  0
M  CHG  1  35  -1
M  END
> <s_m_entry_id>
22917

> <s_m_entry_name>
data_maestro.144

> <s_m_Source_Path>
C:\Users\olshana1\Documents\new-progect-about-gram-negative-bacteria-main\work with NATURE dataset - neutral molecules\Gram Negative Permeation - OmpF- applying for Nature_data_neutral_charge

> <s_m_Source_File>
data_maestro.csv

> <i_m_Source_File_Index>
144

> <s_m_job_name>
glide-dock_nature_neutral_ph7.4

> <s_i_glide_gridfile>
3POX-grid

> <i_i_glide_lignum>
146

> <i_i_glide_rotatable_bonds>
10

> <r_i_docking_score>
-3.8683406000974

> <r_i_glide_ligand_efficiency>
-0.104549745948579

> <r_i_glide_ligand_efficiency_sa>
-0.348382947614559

> <r_i_glide_ligand_efficiency_ln>
-0.838952389390733

> <r_i_glide_gscore>
-3.8683406000974

> <r_i_glide_lipo>
0

> <r_i_glide_hbond>
-0.301838768790517

> <r_i_glide_metal>
0

> <r_i_glide_rewards>
0.000706650745369397

> <r_i_glide_evdw>
-30.5456600189209

> <r_i_glide_ecoul>
-14.0819444656372

> <r_i_glide_erotb>
0.312115183072394

> <r_i_glide_esite>
-0.239748994333025

> <r_i_glide_emodel>
-58.5296982861596

> <r_i_glide_energy>
-44.6276044845581

> <r_i_glide_einternal>
13.4660501480103

> <i_i_glide_confnum>
5

> <i_i_glide_posenum>
25

> <r_i_glide_eff_state_penalty>
0

> <r_glide_res:A132_vdw>
-1.6774877666575

> <r_glide_res:A132_coul>
-38.4104596763195

> <r_glide_res:A132_hbond>
-0.096421902367687

> <r_glide_res:A132_dist>
2.08173591094798

> <r_glide_res:A132_Eint>
-40.1843693453447

> <r_glide_res:A117_vdw>
-4.58786169978812

> <r_glide_res:A117_coul>
13.3892749604576

> <r_glide_res:A117_hbond>
0

> <r_glide_res:A117_dist>
2.17662132870376

> <r_glide_res:A117_Eint>
8.80141326066945

> <r_glide_res:A113_vdw>
-3.18514379692327

> <r_glide_res:A113_coul>
11.4304200220788

> <r_glide_res:A113_hbond>
0

> <r_glide_res:A113_dist>
2.53546374506463

> <r_glide_res:A113_Eint>
8.24527622515552

> <r_glide_res:A82_vdw>
-2.3854610151896

> <r_glide_res:A82_coul>
-41.8764832373667

> <r_glide_res:A82_hbond>
0

> <r_glide_res:A82_dist>
2.28153780554194

> <r_glide_res:A82_Eint>
-44.2619442525563

> <r_glide_res:A42_vdw>
0.528033984028022

> <r_glide_res:A42_coul>
-45.8414457333806

> <r_glide_res:A42_hbond>
-0.163701308367234

> <r_glide_res:A42_dist>
1.65455755988928

> <r_glide_res:A42_Eint>
-45.4771130577198

> <r_glide_res:A16_vdw>
-0.895215667790081

> <r_glide_res:A16_coul>
-24.4061347799217

> <r_glide_res:A16_hbond>
0

> <r_glide_res:A16_dist>
2.85530978926615

> <r_glide_res:A16_Eint>
-25.3013504477118

> <s_m_source_file>
ligprep_data_Nature_from3Dstructure_NEUTRAL-out1_without_tautomers-out1_5.maegz

> <i_m_source_file_index>
144

> <i_lp_mmshare_version>
58128

> <i_f3d_flags>
0

> <s_lp_Force_Field>
S-OPLS

> <r_lp_Energy>
62.525691

> <b_lp_Chiralities_Consistent>
1

> <s_lp_Variant>
2-58-1

> <s_epik_input>
W0NIM11PYyhbY0hdW2NIXTEpW2NIXWMoT1tDSDNdKWMxW0NIMl1bTkhdQyg9TylbQ0BIXTJbQ0BIXShbQ0BdKFtDSDNdKShDKD1PKVtPSF0pW0NAQEhdKFtPSF0pW0NASF0oW09IXSlbQ0hdPTMpQzNbQ0BASF0oW0NAXTI0NSlbQ0gyXVtDSDJdW0NAXShbT0hdKShbQ0gyXTUpQyhbQ0gyXTQpPVtDSDJd

> <s_epik_cmdline>
J2VwaWtfcHl0aG9uJywgJy1waHQnLCAnMC4wJywgJy1waCcsICc3LjQnLCAnLW50JywgJy1tYScsICc1MDAnLCAnLWltYWUnLCAnPGluZmlsZS5tYWU+JywgJy1vbWFlJywgJzxvdXRmaWxlLm1hZT4n

> <r_lp_tautomer_probability>
1

> <r_epik_Ionization_Penalty>
  0.0006

> <r_epik_Ionization_Penalty_Charging>
  0.0006

> <r_epik_Ionization_Penalty_Neutral>
  0.0000

> <r_epik_State_Penalty>
  0.0000

> <r_epik_Charging_Adjusted_Penalty>
0.000563968737515547

> <i_epik_Tot_Q>
-1

> <i_epik_Tot_abs_Q>
1

> <s_m_subgroup_title>
glide-dock_nature_neutral_ph7.4_pv1

> <s_m_subgroupid>
glide-dock_nature_neutral_ph7.4_pv1

> <b_m_subgroup_collapsed>
0

$$$$
