%chk=2-87_2606_vol.chk
%mem=2GB
%nproc=2
#P M062X/6-31+G(d,p) volume

2-87

0 1
 O              
 C                  1            B1
 C                  2            B2    1            A1
 C                  3            B3    2            A2    1            D1    0
 C                  4            B4    3            A3    2            D2    0
 C                  4            B5    3            A4    2            D3    0
 O                  6            B6    4            A5    3            D4    0
 C                  7            B7    6            A6    4            D5    0
 C                  8            B8    7            A7    6            D6    0
 C                  9            B9    8            A8    7            D7    0
 C                 10           B10    9            A9    8            D8    0
 C                 11           B11   10           A10    9            D9    0
 C                 12           B12   11           A11   10           D10    0
 C                 12           B13   11           A12   10           D11    0
 O                 14           B14   12           A13   11           D12    0
 C                 15           B15   14           A14   12           D13    0
 C                 16           B16   15           A15   14           D14    0
 O                 14           B17   12           A16   11           D15    0
 C                 14           B18   12           A17   11           D16    0
 C                 11           B19   10           A18    9           D17    0
 C                  2           B20    1           A19    3           D18    0
 C                  6           B21    4           A20    3           D19    0
 C                 22           B22    6           A21    4           D20    0
 O                 23           B23   22           A22    6           D21    0
 C                 24           B24   23           A23   22           D22    0
 C                 25           B25   24           A24   23           D23    0
 O                 23           B26   22           A25    6           D24    0
 C                 23           B27   22           A26    6           D25    0
 C                 28           B28   23           A27   22           D26    0
 H                  3           B29    2           A28    1           D27    0
 H                  5           B30    4           A29    3           D28    0
 H                  5           B31    4           A30    3           D29    0
 H                  5           B32    4           A31    3           D30    0
 H                  8           B33    7           A32    6           D31    0
 H                  9           B34    8           A33    7           D32    0
 H                  9           B35    8           A34    7           D33    0
 H                 10           B36    9           A35    8           D34    0
 H                 11           B37   10           A36    9           D35    0
 H                 13           B38   12           A37   11           D36    0
 H                 13           B39   12           A38   11           D37    0
 H                 13           B40   12           A39   11           D38    0
 H                 16           B41   15           A40   14           D39    0
 H                 16           B42   15           A41   14           D40    0
 H                 17           B43   16           A42   15           D41    0
 H                 17           B44   16           A43   15           D42    0
 H                 19           B45   14           A44   12           D43    0
 H                 19           B46   14           A45   12           D44    0
 H                 20           B47   11           A46   10           D45    0
 H                 20           B48   11           A47   10           D46    0
 H                 21           B49    2           A48    1           D47    0
 H                 21           B50    2           A49    1           D48    0
 H                 22           B51    6           A50    4           D49    0
 H                 22           B52    6           A51    4           D50    0
 H                 25           B53   24           A52   23           D51    0
 H                 25           B54   24           A53   23           D52    0
 H                 26           B55   25           A54   24           D53    0
 H                 26           B56   25           A55   24           D54    0
 H                 28           B57   23           A56   22           D55    0
 H                 28           B58   23           A57   22           D56    0
 H                 29           B59   28           A58   23           D57    0
 H                 29           B60   28           A59   23           D58    0

   B1             1.23512987
   B2             1.56153703
   B3             1.58207775
   B4             1.55691118
   B5             1.53909133
   B6             1.42757478
   B7             1.44135089
   B8             1.50384573
   B9             1.54173094
   B10            1.54200740
   B11            1.53216304
   B12            1.55732334
   B13            1.54806311
   B14            1.38722532
   B15            1.41546942
   B16            1.53600296
   B17            1.38365824
   B18            1.55826269
   B19            1.52978558
   B20            1.53707061
   B21            1.51843088
   B22            1.53392057
   B23            1.39097875
   B24            1.40884663
   B25            1.52173191
   B26            1.39071714
   B27            1.53623626
   B28            1.54381002
   B29            1.09150355
   B30            1.08668915
   B31            1.08651031
   B32            1.08997434
   B33            1.08717858
   B34            1.09089201
   B35            1.08327556
   B36            1.08815727
   B37            1.09455909
   B38            1.08955305
   B39            1.09054690
   B40            1.08926128
   B41            1.09064473
   B42            1.09105602
   B43            1.09003122
   B44            1.08833035
   B45            1.09122748
   B46            1.09020698
   B47            1.09096432
   B48            1.09059768
   B49            1.08714410
   B50            1.09012385
   B51            1.08981976
   B52            1.08852694
   B53            1.08999738
   B54            1.09136114
   B55            1.09275592
   B56            1.09151452
   B57            1.08554139
   B58            1.09095205
   B59            1.08795315
   B60            1.08948949
   A1           124.02258086
   A2           117.18002246
   A3           110.43688515
   A4           108.59303229
   A5           114.49109865
   A6            62.96217452
   A7           114.05886376
   A8           114.96490519
   A9           108.47870910
   A10          113.71087784
   A11          113.93714399
   A12           99.45250295
   A13          112.47903062
   A14          103.71520819
   A15          103.76959342
   A16          110.71104116
   A17          105.08359869
   A18          119.03153544
   A19          119.08846835
   A20          113.51091073
   A21          111.50399729
   A22          110.54539054
   A23          105.26789470
   A24          100.52375615
   A25          108.79826978
   A26          110.43416544
   A27          111.24423050
   A28          102.93922435
   A29          112.94547816
   A30          113.12467939
   A31          111.42491152
   A32          112.96866067
   A33          109.38279777
   A34          105.27334067
   A35          106.66993371
   A36          105.93684793
   A37          110.97188441
   A38          112.77335826
   A39          112.43902708
   A40          111.88544529
   A41          109.12396439
   A42          112.23014283
   A43          111.59808657
   A44          111.07860509
   A45          109.96061514
   A46          110.99080933
   A47          111.13555352
   A48          110.31768537
   A49          107.50068035
   A50          109.56249774
   A51          110.63340036
   A52          112.19446401
   A53          110.41690900
   A54          110.37489823
   A55          113.25066986
   A56          107.75785606
   A57          108.80949646
   A58          107.61366316
   A59          108.47432381
   D1            -3.59293333
   D2           -61.70059337
   D3           177.56942966
   D4           -44.25794923
   D5           114.58991773
   D6          -113.88081440
   D7            71.92483470
   D8          -157.59922174
   D9          -178.85017977
   D10           61.21414698
   D11          176.99789910
   D12         -161.77817437
   D13         -162.91992509
   D14           29.41685326
   D15           78.90292738
   D16          -39.57471372
   D17          -54.84557491
   D18          179.95282209
   D19         -175.95044860
   D20           59.67956718
   D21           66.20393523
   D22           93.98639831
   D23           37.26446499
   D24         -173.75679933
   D25          -54.63772255
   D26           52.29939869
   D27          112.36434299
   D28           56.91820367
   D29          177.03124660
   D30          -63.91846689
   D31          111.23027270
   D32         -163.99845382
   D33          -50.19676589
   D34           85.47621036
   D35           63.29009186
   D36          178.91685434
   D37          -61.45248648
   D38           59.21742104
   D39          151.15238071
   D40          -89.06911394
   D41          109.82829315
   D42         -128.21694232
   D43          141.15668915
   D44          -99.06757191
   D45          -43.05287783
   D46           76.42746577
   D47            5.69337385
   D48         -111.09251928
   D49         -179.23839088
   D50          -62.53269448
   D51          157.97607176
   D52          -80.49332762
   D53           79.74932747
   D54         -158.03068158
   D55          -68.41736638
   D56          175.08139668
   D57         -179.21317559
   D58           66.71114196
