2-87
                    3D
 Schrodinger Suite 2022-2.
 61 67  0  0  1  0            999 V2000
  -29.0309  -22.9266  -24.2553 O   0  0  0  0  0  0
  -29.1116  -22.4343  -23.1254 C   0  0  0  0  0  0
  -29.5457  -20.9611  -22.8432 C   0  0  2  0  0  0
  -29.8153  -20.0344  -24.0968 C   0  0  2  0  0  0
  -28.5200  -19.8789  -24.9465 C   0  0  0  0  0  0
  -30.2862  -18.6571  -23.5967 C   0  0  1  0  0  0
  -31.2561  -18.7073  -22.5504 O   0  0  0  0  0  0
  -29.9692  -18.1459  -22.2245 C   0  0  1  0  0  0
  -29.1789  -18.9576  -21.2355 C   0  0  0  0  0  0
  -28.6089  -20.2798  -21.7867 C   0  0  1  0  0  0
  -28.3425  -21.2291  -20.6011 C   0  0  1  0  0  0
  -27.7442  -22.5778  -21.0141 C   0  0  1  0  0  0
  -26.3610  -22.4656  -21.7208 C   0  0  0  0  0  0
  -27.5451  -23.2071  -19.6138 C   0  0  0  0  0  0
  -26.6529  -24.2692  -19.6316 O   0  0  0  0  0  0
  -26.9089  -24.9430  -18.4134 C   0  0  0  0  0  0
  -28.3943  -24.6596  -18.1440 C   0  0  0  0  0  0
  -28.7417  -23.7000  -19.1242 O   0  0  0  0  0  0
  -27.0470  -22.0386  -18.7112 C   0  0  0  0  0  0
  -27.4559  -20.7492  -19.4505 C   0  0  0  0  0  0
  -28.7702  -23.3043  -21.9051 C   0  0  0  0  0  0
  -30.6716  -17.7057  -24.7156 C   0  0  0  0  0  0
  -31.8129  -18.2738  -25.5686 C   0  0  0  0  0  0
  -32.9827  -18.3637  -24.8214 O   0  0  0  0  0  0
  -33.6801  -17.1669  -25.0786 C   0  0  0  0  0  0
  -33.3580  -16.9688  -26.5526 C   0  0  0  0  0  0
  -32.0241  -17.4301  -26.6538 O   0  0  0  0  0  0
  -31.4449  -19.6688  -26.0964 C   0  0  0  0  0  0
  -30.9926  -20.5991  -24.9504 C   0  0  0  0  0  0
  -30.5085  -21.0815  -22.3433 H   0  0  0  0  0  0
  -28.1141  -20.8308  -25.2782 H   0  0  0  0  0  0
  -28.6691  -19.2912  -25.8481 H   0  0  0  0  0  0
  -27.7354  -19.3698  -24.3868 H   0  0  0  0  0  0
  -30.0091  -17.0765  -22.0328 H   0  0  0  0  0  0
  -28.3710  -18.3472  -20.8296 H   0  0  0  0  0  0
  -29.8586  -19.1464  -20.4134 H   0  0  0  0  0  0
  -27.6593  -20.0373  -22.2595 H   0  0  0  0  0  0
  -29.3195  -21.4267  -20.1489 H   0  0  0  0  0  0
  -25.9723  -23.4510  -21.9758 H   0  0  0  0  0  0
  -26.4067  -21.8969  -22.6502 H   0  0  0  0  0  0
  -25.6123  -21.9818  -21.0948 H   0  0  0  0  0  0
  -26.6907  -26.0092  -18.4849 H   0  0  0  0  0  0
  -26.2798  -24.5171  -17.6303 H   0  0  0  0  0  0
  -29.0125  -25.5491  -18.2656 H   0  0  0  0  0  0
  -28.5516  -24.2655  -17.1418 H   0  0  0  0  0  0
  -27.4886  -22.0965  -17.7150 H   0  0  0  0  0  0
  -25.9628  -22.0851  -18.6068 H   0  0  0  0  0  0
  -26.5770  -20.2240  -19.8272 H   0  0  0  0  0  0
  -27.9948  -20.0592  -18.8002 H   0  0  0  0  0  0
  -28.3886  -24.2706  -22.2253 H   0  0  0  0  0  0
  -29.6976  -23.4845  -21.3612 H   0  0  0  0  0  0
  -30.9806  -16.7503  -24.2920 H   0  0  0  0  0  0
  -29.8134  -17.4923  -25.3503 H   0  0  0  0  0  0
  -34.7475  -17.2613  -24.8790 H   0  0  0  0  0  0
  -33.2793  -16.3544  -24.4701 H   0  0  0  0  0  0
  -33.9978  -17.6036  -27.1705 H   0  0  0  0  0  0
  -33.4667  -15.9339  -26.8821 H   0  0  0  0  0  0
  -30.6422  -19.5489  -26.8173 H   0  0  0  0  0  0
  -32.3051  -20.0835  -26.6239 H   0  0  0  0  0  0
  -30.7343  -21.5605  -25.3893 H   0  0  0  0  0  0
  -31.8472  -20.7884  -24.3017 H   0  0  0  0  0  0
  1  2  2  0  0  0
  2 21  1  0  0  0
  2  3  1  0  0  0
  3 10  1  0  0  0
  3  4  1  0  0  0
  3 30  1  0  0  0
  4 29  1  0  0  0
  4  5  1  0  0  0
  4  6  1  0  0  0
  5 31  1  0  0  0
  5 32  1  0  0  0
  5 33  1  0  0  0
  6  8  1  0  0  0
  6  7  1  0  0  0
  6 22  1  0  0  0
  7  8  1  0  0  0
  8  9  1  0  0  0
  8 34  1  0  0  0
  9 10  1  0  0  0
  9 35  1  0  0  0
  9 36  1  0  0  0
 10 11  1  0  0  0
 10 37  1  0  0  0
 11 20  1  0  0  0
 11 12  1  0  0  0
 11 38  1  0  0  0
 12 13  1  0  0  0
 12 14  1  0  0  0
 12 21  1  0  0  0
 13 39  1  0  0  0
 13 40  1  0  0  0
 13 41  1  0  0  0
 14 18  1  0  0  0
 14 15  1  0  0  0
 14 19  1  0  0  0
 15 16  1  0  0  0
 16 17  1  0  0  0
 16 42  1  0  0  0
 16 43  1  0  0  0
 17 18  1  0  0  0
 17 44  1  0  0  0
 17 45  1  0  0  0
 19 20  1  0  0  0
 19 46  1  0  0  0
 19 47  1  0  0  0
 20 48  1  0  0  0
 20 49  1  0  0  0
 21 50  1  0  0  0
 21 51  1  0  0  0
 22 23  1  0  0  0
 22 52  1  0  0  0
 22 53  1  0  0  0
 23 27  1  0  0  0
 23 24  1  0  0  0
 23 28  1  0  0  0
 24 25  1  0  0  0
 25 26  1  0  0  0
 25 54  1  0  0  0
 25 55  1  0  0  0
 26 27  1  0  0  0
 26 56  1  0  0  0
 26 57  1  0  0  0
 28 29  1  0  0  0
 28 58  1  0  0  0
 28 59  1  0  0  0
 29 60  1  0  0  0
 29 61  1  0  0  0
M  END
> <s_m_entry_id>
23256

> <s_m_entry_name>
data_maestro.173

> <s_m_Source_Path>
C:\Users\olshana1\Documents\new-progect-about-gram-negative-bacteria-main\work with NATURE dataset - neutral molecules\Gram Negative Permeation - OmpF- applying for Nature_data_neutral_charge

> <s_m_Source_File>
data_maestro.csv

> <i_m_Source_File_Index>
173

> <s_m_job_name>
glide-dock_nature_neutral_ph7.4

> <s_i_glide_gridfile>
3POX-grid

> <i_i_glide_lignum>
175

> <i_i_glide_rotatable_bonds>
0

> <r_i_docking_score>
-3.60123155222379

> <r_i_glide_ligand_efficiency>
-0.124180398352545

> <r_i_glide_ligand_efficiency_sa>
-0.381521526850662

> <r_i_glide_ligand_efficiency_ln>
-0.824590706106334

> <r_i_glide_gscore>
-3.60123155222379

> <r_i_glide_lipo>
0

> <r_i_glide_hbond>
-0.232192152894297

> <r_i_glide_metal>
0

> <r_i_glide_rewards>
-0.65115968181818

> <r_i_glide_evdw>
-32.9487113952637

> <r_i_glide_ecoul>
-5.67005681991577

> <r_i_glide_erotb>
0

> <r_i_glide_esite>
-0.219935624760768

> <r_i_glide_emodel>
-48.176344493005

> <r_i_glide_energy>
-38.6187682151794

> <r_i_glide_einternal>
0

> <i_i_glide_confnum>
1

> <i_i_glide_posenum>
320

> <r_i_glide_eff_state_penalty>
0

> <r_glide_res:A132_vdw>
-2.13830310928487

> <r_glide_res:A132_coul>
-4.76603017666475

> <r_glide_res:A132_hbond>
-0.204491114181316

> <r_glide_res:A132_dist>
2.05860433104472

> <r_glide_res:A132_Eint>
-7.10882440013094

> <r_glide_res:A117_vdw>
-4.15955861758762

> <r_glide_res:A117_coul>
-1.62666852761482

> <r_glide_res:A117_hbond>
0

> <r_glide_res:A117_dist>
2.31969515085391

> <r_glide_res:A117_Eint>
-5.78622714520244

> <r_glide_res:A113_vdw>
-3.535609029352

> <r_glide_res:A113_coul>
1.06693760650305

> <r_glide_res:A113_hbond>
0

> <r_glide_res:A113_dist>
2.1629680745491

> <r_glide_res:A113_Eint>
-2.46867142284895

> <r_glide_res:A82_vdw>
-1.89042575433509

> <r_glide_res:A82_coul>
-3.97025539861554

> <r_glide_res:A82_hbond>
0

> <r_glide_res:A82_dist>
2.10591969481186

> <r_glide_res:A82_Eint>
-5.86068115295063

> <r_glide_res:A42_vdw>
-1.40875937000113

> <r_glide_res:A42_coul>
-6.37678165684799

> <r_glide_res:A42_hbond>
-0.0277010387129812

> <r_glide_res:A42_dist>
2.43074740321755

> <r_glide_res:A42_Eint>
-7.8132420655621

> <r_glide_res:A16_vdw>
-0.999378899453234

> <r_glide_res:A16_coul>
-3.03992176338507

> <r_glide_res:A16_hbond>
0

> <r_glide_res:A16_dist>
2.10147355942395

> <r_glide_res:A16_Eint>
-4.03930066283831

> <s_m_source_file>
ligprep_data_Nature_from3Dstructure_NEUTRAL-out1_without_tautomers-out1_5.maegz

> <i_m_source_file_index>
173

> <i_lp_mmshare_version>
58128

> <i_f3d_flags>
0

> <s_lp_Force_Field>
S-OPLS

> <r_lp_Energy>
19.906531

> <b_lp_Chiralities_Consistent>
1

> <s_lp_Variant>
2-87-1

> <s_epik_input>
TzFbQ0gyXVtDSDJdT0MxKFtDSDJdW0NIMl0yKVtDQEBdKFtDSDNdKShbQ0gyXUMzPU8pW0NAQEhdMltDQEhdKFtDSDJdW0NAQEhdNE81KVtDQEhdM1tDQEBdKFtDQF00NTYpKFtDSDNdKVtDSDJdW0NIMl1DNyhbQ0gyXTYpT1tDSDJdW0NIMl1PNw==

> <s_epik_cmdline>
J2VwaWtfcHl0aG9uJywgJy1waHQnLCAnMC4wJywgJy1waCcsICc3LjQnLCAnLW50JywgJy1tYScsICc1MDAnLCAnLWltYWUnLCAnPGluZmlsZS5tYWU+JywgJy1vbWFlJywgJzxvdXRmaWxlLm1hZT4n

> <r_lp_tautomer_probability>
1

> <r_epik_Ionization_Penalty>
  0.0000

> <r_epik_Ionization_Penalty_Charging>
  0.0000

> <r_epik_Ionization_Penalty_Neutral>
  0.0000

> <r_epik_State_Penalty>
  0.0000

> <r_epik_Charging_Adjusted_Penalty>
0

> <i_epik_Tot_Q>
0

> <i_epik_Tot_abs_Q>
0

> <s_m_subgroup_title>
glide-dock_nature_neutral_ph7.4_pv1

> <s_m_subgroupid>
glide-dock_nature_neutral_ph7.4_pv1

> <b_m_subgroup_collapsed>
0

$$$$
