%chk=4-57_9052_vol.chk
%mem=2GB
%nproc=2
#P M062X/6-31+G(d,p) volume

4-57

1 1
 O              
 C                  1            B1
 C                  2            B2    1            A1
 S                  3            B3    2            A2    1            D1    0
 C                  4            B4    3            A3    2            D2    0
 C                  5            B5    4            A4    3            D3    0
 N                  6            B6    5            A5    4            D4    0
 O                  2            B7    1            A6    3            D5    0
 C                  8            B8    2            A7    1            D6    0
 C                  9            B9    8            A8    2            D7    0
 C                 10           B10    9            A9    8            D8    0
 C                 10           B11    9           A10    8            D9    0
 C                 12           B12   10           A11    9           D10    0
 C                 12           B13   10           A12    9           D11    0
 C                 14           B14   12           A13   10           D12    0
 C                 15           B15   14           A14   12           D13    0
 C                 16           B16   15           A15   14           D14    0
 C                 17           B17   16           A16   15           D15    0
 C                 17           B18   16           A17   15           D16    0
 O                 19           B19   17           A18   16           D17    0
 C                 19           B20   17           A19   16           D18    0
 C                  9           B21    8           A20    2           D19    0
 C                 21           B22   19           A21   17           D20    0
 C                 23           B23   21           A22   19           D21    0
 C                 21           B24   19           A23   17           D22    0
 C                 16           B25   15           A24   14           D23    0
 C                 26           B26   16           A25   15           D24    0
 C                 27           B27   26           A26   16           D25    0
 C                 28           B28   27           A27   26           D26    0
 O                 27           B29   26           A28   16           D27    0
 H                  3           B30    2           A29    1           D28    0
 H                  3           B31    2           A30    1           D29    0
 H                  5           B32    4           A31    3           D30    0
 H                  5           B33    4           A32    3           D31    0
 H                  6           B34    5           A33    4           D32    0
 H                  6           B35    5           A34    4           D33    0
 H                  7           B36    6           A35    5           D34    0
 H                  7           B37    6           A36    5           D35    0
 H                  9           B38    8           A37    2           D36    0
 H                 11           B39   10           A38    9           D37    0
 H                 11           B40   10           A39    9           D38    0
 H                 11           B41   10           A40    9           D39    0
 H                 12           B42   10           A41    9           D40    0
 H                 13           B43   12           A42   10           D41    0
 H                 13           B44   12           A43   10           D42    0
 H                 13           B45   12           A44   10           D43    0
 H                 14           B46   12           A45   10           D44    0
 H                 14           B47   12           A46   10           D45    0
 H                 15           B48   14           A47   12           D46    0
 H                 15           B49   14           A48   12           D47    0
 H                 17           B50   16           A49   15           D48    0
 H                 18           B51   17           A50   16           D49    0
 H                 18           B52   17           A51   16           D50    0
 H                 18           B53   17           A52   16           D51    0
 H                 19           B54   17           A53   16           D52    0
 H                 20           B55   19           A54   17           D53    0
 H                 22           B56    9           A55    8           D54    0
 H                 22           B57    9           A56    8           D55    0
 H                 23           B58   21           A57   19           D56    0
 H                 24           B59   23           A58   21           D57    0
 H                 24           B60   23           A59   21           D58    0
 H                 25           B61   21           A60   19           D59    0
 H                 25           B62   21           A61   19           D60    0
 H                 25           B63   21           A62   19           D61    0
 H                 26           B64   16           A63   15           D62    0
 H                 28           B65   27           A64   26           D63    0
 H                 28           B66   27           A65   26           D64    0
 H                 29           B67   28           A66   27           D65    0
 H                 29           B68   28           A67   27           D66    0
 H                  7           B69    6           A68    5           D67    0

   B1             1.23258396
   B2             1.52856829
   B3             1.82128449
   B4             1.82466976
   B5             1.54281475
   B6             1.47147239
   B7             1.35363653
   B8             1.43082104
   B9             1.58087611
   B10            1.53980463
   B11            1.56605906
   B12            1.54283274
   B13            1.53831207
   B14            1.54324680
   B15            1.57093020
   B16            1.59108584
   B17            1.55590788
   B18            1.56376113
   B19            1.40735219
   B20            1.57152258
   B21            1.54504919
   B22            1.53500861
   B23            1.34702811
   B24            1.54372181
   B25            1.57128601
   B26            1.54676595
   B27            1.50511532
   B28            1.52020681
   B29            1.22984404
   B30            1.08729654
   B31            1.08825614
   B32            1.09025520
   B33            1.09143233
   B34            1.09021571
   B35            1.09101696
   B36            1.03472262
   B37            1.01543877
   B38            1.07027160
   B39            1.09076539
   B40            1.08191079
   B41            1.08952765
   B42            1.09076431
   B43            1.08649001
   B44            1.09034840
   B45            1.09109906
   B46            1.08509791
   B47            1.09057149
   B48            1.08932996
   B49            1.09043147
   B50            1.08807817
   B51            1.08935074
   B52            1.08831353
   B53            1.09075712
   B54            1.09082639
   B55            0.94563800
   B56            1.08746206
   B57            1.09281451
   B58            1.07879315
   B59            1.08038947
   B60            1.08121575
   B61            1.08399560
   B62            1.08639328
   B63            1.08950517
   B64            1.08626596
   B65            1.09082699
   B66            1.09111910
   B67            1.09255794
   B68            1.09123172
   B69            1.00930244
   A1           121.27627740
   A2           110.86800098
   A3           104.41907671
   A4           115.51538038
   A5           113.49836302
   A6           126.61671271
   A7           123.90722567
   A8           115.45303892
   A9           105.88603937
   A10          112.04994452
   A11          116.48159305
   A12          111.74168491
   A13          113.91887231
   A14          118.17027093
   A15          115.89601529
   A16          112.99670726
   A17          120.66270168
   A18          108.79134525
   A19          120.84116934
   A20          105.34534128
   A21          109.39299685
   A22          127.65783887
   A23          107.85225497
   A24          111.51956967
   A25          104.18629870
   A26          112.06846391
   A27          102.12559200
   A28          126.01729268
   A29          109.92412102
   A30          109.09704544
   A31          108.40058249
   A32          107.10403815
   A33          111.10240928
   A34          109.47612619
   A35          107.61765973
   A36          111.10157990
   A37          103.29692499
   A38          113.01275728
   A39          108.50028577
   A40          112.44589782
   A41          107.25235589
   A42          112.39721553
   A43          112.53546293
   A44          110.34359926
   A45          110.79663764
   A46          108.36871917
   A47          109.29850968
   A48          104.53585558
   A49          105.03794885
   A50          112.06497282
   A51          113.37626597
   A52          110.95980329
   A53          106.28673294
   A54          106.85481077
   A55          111.79052710
   A56          109.60793518
   A57          114.73790273
   A58          120.98827608
   A59          122.44082055
   A60          110.50665803
   A61          112.13756330
   A62          112.40145330
   A63          107.38211160
   A64          109.42279406
   A65          111.65672271
   A66          107.14763358
   A67          110.25643574
   A68          110.26539128
   D1          -136.63182568
   D2          -119.41261675
   D3            49.85198578
   D4            52.79525983
   D5          -179.70635423
   D6            -2.18943304
   D7           126.41065469
   D8            39.12287795
   D9           -79.72467203
   D10           63.17709064
   D11          -64.58256327
   D12          -55.19932650
   D13           41.23398885
   D14          100.68320498
   D15           62.50593310
   D16          -66.28600098
   D17           51.68592223
   D18          -83.56280140
   D19         -106.03049799
   D20          179.86387156
   D21          119.13237596
   D22          -60.35550335
   D23          -33.26499750
   D24          -88.21905771
   D25           -7.08314942
   D26          -13.49532744
   D27          176.95633672
   D28          100.03745613
   D29          -16.89204146
   D30          -73.12299824
   D31          172.64363008
   D32          -69.35665964
   D33          173.96452633
   D34         -175.80036697
   D35           65.28466103
   D36            9.98402143
   D37         -163.04663117
   D38          -46.19710933
   D39           73.44677536
   D40          179.32327746
   D41          -68.73901944
   D42           53.97654540
   D43          172.26289478
   D44           72.41387251
   D45         -174.78169452
   D46          169.40720303
   D47          -80.00010776
   D48          174.14128197
   D49          -67.85369476
   D50           54.75081841
   D51          172.26888647
   D52          161.25645743
   D53          -55.11358017
   D54         -109.58293987
   D55            0.30721742
   D56          -62.39906167
   D57          178.35499819
   D58           -0.82599528
   D59           66.80100138
   D60         -175.81016845
   D61          -53.67055992
   D62          165.89349165
   D63          105.45608630
   D64         -133.82655922
   D65          -90.37977252
   D66          153.93797711
   D67          -56.87965471
