%chk=4-9_8971_vol.chk
%mem=2GB
%nproc=2
#P M062X/6-31+G(d,p) volume

4-9

1 1
 O              
 C                  1            B1
 O                  2            B2    1            A1
 C                  3            B3    2            A2    1            D1    0
 C                  4            B4    3            A3    2            D2    0
 C                  5            B5    4            A4    3            D3    0
 C                  6            B6    5            A5    4            D4    0
 C                  7            B7    6            A6    5            D5    0
 C                  8            B8    7            A7    6            D6    0
 N                  9            B9    8            A8    7            D7    0
 C                  8           B10    7            A9    6            D8    0
 C                 11           B11    8           A10    7            D9    0
 C                 12           B12   11           A11    8           D10    0
 C                 12           B13   11           A12    8           D11    0
 C                 14           B14   12           A13   11           D12    0
 C                 15           B15   14           A14   12           D13    0
 C                 11           B16    8           A15    7           D14    0
 C                 17           B17   11           A16    8           D15    0
 C                 18           B18   17           A17   11           D16    0
 C                 19           B19   18           A18   17           D17    0
 C                  4           B20    3           A19    2           D18    0
 C                  5           B21    4           A20    3           D19    0
 C                  2           B22    1           A21    3           D20    0
 H                  6           B23    5           A22    4           D21    0
 H                  6           B24    5           A23    4           D22    0
 H                  8           B25    7           A24    6           D23    0
 H                  9           B26    8           A25    7           D24    0
 H                  9           B27    8           A26    7           D25    0
 H                 10           B28    9           A27    8           D26    0
 H                 10           B29    9           A28    8           D27    0
 H                 13           B30   12           A29   11           D28    0
 H                 13           B31   12           A30   11           D29    0
 H                 13           B32   12           A31   11           D30    0
 H                 14           B33   12           A32   11           D31    0
 H                 15           B34   14           A33   12           D32    0
 H                 16           B35   15           A34   14           D33    0
 H                 18           B36   17           A35   11           D34    0
 H                 19           B37   18           A36   17           D35    0
 H                 19           B38   18           A37   17           D36    0
 H                 20           B39   19           A38   18           D37    0
 H                 20           B40   19           A39   18           D38    0
 H                 21           B41    4           A40    3           D39    0
 H                 21           B42    4           A41    3           D40    0
 H                 22           B43    5           A42    4           D41    0
 H                 22           B44    5           A43    4           D42    0
 H                 23           B45    2           A44    1           D43    0
 H                 23           B46    2           A45    1           D44    0
 H                 23           B47    2           A46    1           D45    0
 H                 10           B48    9           A47    8           D46    0

   B1             1.22955333
   B2             1.34903791
   B3             1.43161005
   B4             1.52203731
   B5             1.51112415
   B6             1.53417445
   B7             1.57022900
   B8             1.54883574
   B9             1.47020463
   B10            1.51942151
   B11            1.41714898
   B12            1.51829374
   B13            1.41279709
   B14            1.41140797
   B15            1.40961119
   B16            1.39468830
   B17            1.50467659
   B18            1.54635252
   B19            1.54921005
   B20            1.54075076
   B21            1.34301694
   B22            1.52248116
   B23            1.08724241
   B24            1.09069690
   B25            1.09150726
   B26            1.08511288
   B27            1.09025493
   B28            1.02063069
   B29            1.02828480
   B30            1.08962534
   B31            1.09100373
   B32            1.09009862
   B33            1.07937258
   B34            1.07817858
   B35            1.07980459
   B36            1.09104644
   B37            1.09084662
   B38            1.08999488
   B39            1.09075274
   B40            1.08931199
   B41            1.09066920
   B42            1.08899521
   B43            1.08008239
   B44            1.08094913
   B45            1.08974478
   B46            1.08939136
   B47            1.08979575
   B48            1.00790553
   A1           126.45344602
   A2           123.30872931
   A3           109.21464020
   A4           109.32527894
   A5           103.85840590
   A6           113.48329607
   A7           114.93762486
   A8           110.63260777
   A9           104.09901130
   A10          127.95969389
   A11          122.72705573
   A12          118.41797291
   A13          120.78071135
   A14          120.37297554
   A15          111.54852983
   A16          112.07159188
   A17          115.17943743
   A18          112.11585396
   A19          112.92985613
   A20          125.97379527
   A21          121.39501449
   A22          108.05851416
   A23          112.79955808
   A24          108.90819084
   A25          111.85073194
   A26          112.45217021
   A27          108.59503114
   A28          105.36081564
   A29          110.81375861
   A30          111.34594788
   A31          110.65419265
   A32          119.47493099
   A33          119.52528201
   A34          121.04425452
   A35          105.37741668
   A36          108.89080156
   A37          110.83933517
   A38          109.87980556
   A39          107.84592141
   A40          113.80303905
   A41          108.68387619
   A42          121.33338024
   A43          120.96380145
   A44          110.02292614
   A45          110.49107190
   A46          110.65452465
   A47          111.30982409
   D1             4.90309866
   D2           172.08613030
   D3          -138.69160521
   D4           -10.74462410
   D5           161.98807902
   D6          -102.93952595
   D7            73.62382829
   D8           130.05918877
   D9          -178.35051338
   D10            0.06727156
   D11          177.42336317
   D12           -2.63088346
   D13           -0.10729751
   D14           -4.60352958
   D15           -2.09271269
   D16          134.21977147
   D17         -164.84822975
   D18           60.98775360
   D19           36.44141884
   D20         -179.70695838
   D21          105.49704327
   D22         -135.14647686
   D23           19.35546967
   D24         -169.61078334
   D25          -50.94833510
   D26          171.80074341
   D27           55.27374137
   D28          152.06021006
   D29           33.10672861
   D30          -88.49822718
   D31          179.02152431
   D32         -177.83961436
   D33         -176.84533023
   D34         -107.43706652
   D35          -44.95913891
   D36           71.07666908
   D37          -85.00833162
   D38          161.10327941
   D39          -78.55885182
   D40           40.49036034
   D41            2.72370319
   D42         -176.69048589
   D43         -111.76522370
   D44          128.37821389
   D45            8.17415143
   D46          -65.45538715
