%chk=tetracycline_9053_vol.chk
%mem=2GB
%nproc=2
#P M062X/6-31+G(d,p) volume

Tetracycline

-1 1
 O              
 C                  1            B1
 N                  2            B2    1            A1
 C                  2            B3    1            A2    3            D1    0
 C                  4            B4    2            A3    1            D2    0
 C                  5            B5    4            A4    2            D3    0
 C                  6            B6    5            A5    4            D4    0
 C                  7            B7    6            A6    5            D5    0
 C                  8            B8    7            A7    6            D6    0
 O                  9            B9    8            A8    7            D7    0
 C                  9           B10    8            A9    7            D8    0
 C                 11           B11    9           A10    8            D9    0
 O                 12           B12   11           A11    9           D10    0
 C                 12           B13   11           A12    9           D11    0
 C                 14           B14   12           A13   11           D12    0
 C                 15           B15   14           A14   12           D13    0
 C                 16           B16   15           A15   14           D14    0
 C                 17           B17   16           A16   15           D15    0
 C                  8           B18    7           A17    6           D16    0
 C                 19           B19    8           A18    7           D17    0
 C                  6           B20    5           A19    4           D18    0
 C                 21           B21    6           A20    5           D19    0
 C                  4           B22    2           A21    1           D20    0
 O                 23           B23    4           A22    2           D21    0
 N                 22           B24   21           A23    6           D22    0
 C                 25           B25   22           A24   21           D23    0
 C                 25           B26   22           A25   21           D24    0
 O                 18           B27   17           A26   16           D25    0
 C                 18           B28   17           A27   16           D26    0
 O                  7           B29    6           A28    5           D27    0
 O                  6           B30    5           A29    4           D28    0
 O                  5           B31    4           A30    2           D29    0
 H                  3           B32    2           A31    1           D30    0
 H                  3           B33    2           A32    1           D31    0
 H                 13           B34   12           A33   11           D32    0
 H                 14           B35   12           A34   11           D33    0
 H                 15           B36   14           A35   12           D34    0
 H                 16           B37   15           A36   14           D35    0
 H                 19           B38    8           A37    7           D36    0
 H                 20           B39   19           A38    8           D37    0
 H                 20           B40   19           A39    8           D38    0
 H                 21           B41    6           A40    5           D39    0
 H                 22           B42   21           A41    6           D40    0
 H                 26           B43   25           A42   22           D41    0
 H                 26           B44   25           A43   22           D42    0
 H                 26           B45   25           A44   22           D43    0
 H                 27           B46   25           A45   22           D44    0
 H                 27           B47   25           A46   22           D45    0
 H                 27           B48   25           A47   22           D46    0
 H                 28           B49   18           A48   17           D47    0
 H                 29           B50   18           A49   17           D48    0
 H                 29           B51   18           A50   17           D49    0
 H                 29           B52   18           A51   17           D50    0
 H                 31           B53    6           A52    5           D51    0
 H                 25           B54   22           A53   21           D52    0

   B1             1.23080990
   B2             1.33272808
   B3             1.48225869
   B4             1.40695334
   B5             1.56716958
   B6             1.54266323
   B7             1.46974426
   B8             1.38530001
   B9             1.25674381
   B10            1.50120801
   B11            1.42600953
   B12            1.36940487
   B13            1.40903478
   B14            1.40086439
   B15            1.40142100
   B16            1.41723915
   B17            1.53861949
   B18            1.53193975
   B19            1.54912808
   B20            1.54724331
   B21            1.55566714
   B22            1.49960060
   B23            1.23439116
   B24            1.49816581
   B25            1.49095120
   B26            1.48706530
   B27            1.41954554
   B28            1.54889497
   B29            1.23179242
   B30            1.41961846
   B31            1.26144327
   B32            1.00605571
   B33            1.01333874
   B34            0.95749750
   B35            1.07922347
   B36            1.08038868
   B37            1.07858695
   B38            1.09301553
   B39            1.09182254
   B40            1.07704457
   B41            1.09157730
   B42            1.08939488
   B43            1.09134400
   B44            1.08798065
   B45            1.09050365
   B46            1.08820652
   B47            1.09050431
   B48            1.07870020
   B49            0.95143467
   B50            1.08308265
   B51            1.08886122
   B52            1.09009436
   B53            0.94977885
   B54            1.01389457
   A1           118.62008978
   A2           126.40505912
   A3           116.56166847
   A4           120.78060508
   A5           111.40663254
   A6           116.10852613
   A7           125.01253349
   A8           129.69103119
   A9           116.75388946
   A10          122.68825970
   A11          122.23561080
   A12          120.70108268
   A13          120.60520652
   A14          119.59598482
   A15          120.80871179
   A16          120.87152296
   A17          115.42861889
   A18          116.83354371
   A19          114.08497825
   A20          109.58044475
   A21          122.61797347
   A22          122.86775402
   A23          116.19797889
   A24          114.23144992
   A25          115.06565498
   A26          111.60084892
   A27          113.07740803
   A28          120.88555259
   A29          107.95311598
   A30          131.02803199
   A31          119.93171992
   A32          117.93780196
   A33          113.04003876
   A34          120.68142113
   A35          120.36156593
   A36          117.04170328
   A37          104.15161858
   A38          107.68011972
   A39          105.92257494
   A40          106.94230951
   A41          108.73805951
   A42          112.29113215
   A43          111.00914878
   A44          112.78085857
   A45          113.07711614
   A46          111.02891343
   A47          111.44270423
   A48          108.90592947
   A49          110.61459140
   A50          113.92385602
   A51          112.26321241
   A52          103.35923843
   A53          102.25108538
   D1           179.07458184
   D2           -26.94349009
   D3          -174.07922359
   D4          -103.85136914
   D5          -168.59194049
   D6           144.09424886
   D7             4.09019176
   D8          -179.52489767
   D9           144.25545918
   D10           -1.31238654
   D11         -178.04130396
   D12            0.48539520
   D13            2.58052631
   D14           -0.81600530
   D15          170.37795666
   D16          -38.36970264
   D17           -4.18728435
   D18           16.88271436
   D19          -47.41682974
   D20          156.03391919
   D21            3.83641144
   D22         -179.07734449
   D23           99.50313183
   D24          -35.27598661
   D25          104.89736634
   D26          -12.41759572
   D27           16.08390463
   D28          136.10362433
   D29            1.39739935
   D30            3.65834103
   D31         -177.98406427
   D32         -102.61282910
   D33          179.24748766
   D34          179.40893668
   D35          176.17745150
   D36          109.96383697
   D37          142.41395985
   D38         -106.19924874
   D39           69.48023014
   D40          -57.49395499
   D41         -105.33270748
   D42          134.40021726
   D43           15.89436804
   D44           69.19525984
   D45          -52.67691676
   D46         -172.02947524
   D47         -120.49485610
   D48          -59.34463130
   D49         -179.57829243
   D50           61.65674567
   D51           28.85393344
   D52         -148.48812517
